%NProcShared=8 
%Mem=6GB  
%Chk=CO2_CO2_222.chk 

#p ROCCSD(T)/cc-pVTZ 

CO2_CO2_222 

-1 2
O     -2.326000     0.000000     0.000000 
C     -1.163000     0.000000     0.000000 
O      0.000000     0.000000     0.000000 
O      3.960000     0.000000     0.000000 
C      5.123000     0.000000     0.000000 
O      6.286000     0.000000     0.000000 


