%NProcShared=8 
%Mem=6GB  
%Chk=CO2_CO2_11.chk 

#p ROCCSD(T)/cc-pVTZ 

CO2_CO2_11 

-1 2
O     -2.326000     0.000000     0.000000 
C     -1.163000     0.000000     0.000000 
O      0.000000     0.000000     0.000000 
O      0.000000     1.120000     0.000000 
C      0.000000     2.283000     0.000000 
O      0.000000     3.446000     0.000000 


