%NProcShared=8 
%Mem=6GB  
%Chk=CO2_CO2_178.chk 

#p ROCCSD(T)/cc-pVTZ 

CO2_CO2_178 

-1 2
O     -2.326000     0.000000     0.000000 
C     -1.163000     0.000000     0.000000 
O      0.000000     0.000000     0.000000 
O      2.375879     2.375879     0.000000 
C      3.198244     3.198244     0.000000 
O      4.020609     4.020609     0.000000 


