%NProcShared=8 
%Mem=6GB  
%Chk=CO2_CO2_184.chk 

#p ROCCSD(T)/cc-pVTZ 

CO2_CO2_184 

-1 2
O     -2.326000     0.000000     0.000000 
C     -1.163000     0.000000     0.000000 
O      0.000000     0.000000     0.000000 
O      2.432447     2.432447     0.000000 
C      3.254813     3.254813     0.000000 
O      4.077178     4.077178     0.000000 


