%NProcShared=8 
%Mem=6GB  
%Chk=CO2_CO2_196.chk 

#p ROCCSD(T)/cc-pVTZ 

CO2_CO2_196 

-1 2
O     -2.326000     0.000000     0.000000 
C     -1.163000     0.000000     0.000000 
O      0.000000     0.000000     0.000000 
O      2.545584     2.545584     0.000000 
C      3.367950     3.367950     0.000000 
O      4.190315     4.190315     0.000000 


