%NProcShared=8 
%Mem=6GB  
%Chk=CO2_CO2_45.chk 

#p ROCCSD(T)/cc-pVTZ 

CO2_CO2_45 

-1 2
O     -2.326000     0.000000     0.000000 
C     -1.163000     0.000000     0.000000 
O      0.000000     0.000000     0.000000 
O      1.600000     0.000000     0.000000 
C      2.763000     0.000000     0.000000 
O      3.926000     0.000000     0.000000 


