%NProcShared=8 
%Mem=6GB  
%Chk=CO2_CO2_4.chk 

#p ROCCSD(T)/cc-pVTZ 

CO2_CO2_4 

-1 2
O     -2.326000     0.000000     0.000000 
C     -1.163000     0.000000     0.000000 
O      0.000000     0.000000     0.000000 
O      0.735391     0.735391     0.000000 
C      1.557756     1.557756     0.000000 
O      2.380121     2.380121     0.000000 


