%NProcShared=8 
%Mem=6GB  
%Chk=CO2_CO2_216.chk 

#p ROCCSD(T)/cc-pVTZ 

CO2_CO2_216 

-1 2
O     -2.326000     0.000000     0.000000 
C     -1.163000     0.000000     0.000000 
O      0.000000     0.000000     0.000000 
O      3.880000     0.000000     0.000000 
C      5.043000     0.000000     0.000000 
O      6.206000     0.000000     0.000000 


