%NProcShared=8 
%Mem=6GB  
%Chk=CO2_CO2_274.chk 

#p ROCCSD(T)/cc-pVTZ 

CO2_CO2_274 

-1 2
O     -2.326000     0.000000     0.000000 
C     -1.163000     0.000000     0.000000 
O      0.000000     0.000000     0.000000 
O      3.280975     3.280975     0.000000 
C      4.103341     4.103341     0.000000 
O      4.925706     4.925706     0.000000 


