%NProcShared=8 
%Mem=6GB  
%Chk=CO2_CO2_130.chk 

#p ROCCSD(T)/cc-pVTZ 

CO2_CO2_130 

-1 2
O     -2.326000     0.000000     0.000000 
C     -1.163000     0.000000     0.000000 
O      0.000000     0.000000     0.000000 
O      1.923330     1.923330     0.000000 
C      2.745696     2.745696     0.000000 
O      3.568061     3.568061     0.000000 


