%NProcShared=8 
%Mem=6GB  
%Chk=CO2_CO2_234.chk 

#p ROCCSD(T)/cc-pVTZ 

CO2_CO2_234 

-1 2
O     -2.326000     0.000000     0.000000 
C     -1.163000     0.000000     0.000000 
O      0.000000     0.000000     0.000000 
O      4.120000     0.000000     0.000000 
C      5.283000     0.000000     0.000000 
O      6.446000     0.000000     0.000000 


