%NProcShared=8 
%Mem=6GB  
%Chk=CO2_CO2_132.chk 

#p ROCCSD(T)/cc-pVTZ 

CO2_CO2_132 

-1 2
O     -2.326000     0.000000     0.000000 
C     -1.163000     0.000000     0.000000 
O      0.000000     0.000000     0.000000 
O      2.760000     0.000000     0.000000 
C      3.923000     0.000000     0.000000 
O      5.086000     0.000000     0.000000 


