%NProcShared=8 
%Mem=6GB  
%Chk=CO2_CO2_174.chk 

#p ROCCSD(T)/cc-pVTZ 

CO2_CO2_174 

-1 2
O     -2.326000     0.000000     0.000000 
C     -1.163000     0.000000     0.000000 
O      0.000000     0.000000     0.000000 
O      3.320000     0.000000     0.000000 
C      4.483000     0.000000     0.000000 
O      5.646000     0.000000     0.000000 


