%NProcShared=8 
%Mem=6GB  
%Chk=CO2_CO2_288.chk 

#p ROCCSD(T)/cc-pVTZ 

CO2_CO2_288 

-1 2
O     -2.326000     0.000000     0.000000 
C     -1.163000     0.000000     0.000000 
O      0.000000     0.000000     0.000000 
O      4.840000     0.000000     0.000000 
C      6.003000     0.000000     0.000000 
O      7.166000     0.000000     0.000000 


