%NProcShared=8 
%Mem=6GB  
%Chk=CO2_CO2_127.chk 

#p ROCCSD(T)/cc-pVTZ 

CO2_CO2_127 

-1 2
O     -2.326000     0.000000     0.000000 
C     -1.163000     0.000000     0.000000 
O      0.000000     0.000000     0.000000 
O      1.895046     1.895046     0.000000 
C      2.717411     2.717411     0.000000 
O      3.539777     3.539777     0.000000 


