%NProcShared=8 
%Mem=6GB  
%Chk=CO2_CO2_202.chk 

#p ROCCSD(T)/cc-pVTZ 

CO2_CO2_202 

-1 2
O     -2.326000     0.000000     0.000000 
C     -1.163000     0.000000     0.000000 
O      0.000000     0.000000     0.000000 
O      2.602153     2.602153     0.000000 
C      3.424518     3.424518     0.000000 
O      4.246883     4.246883     0.000000 


