%NProcShared=8 
%Mem=6GB  
%Chk=CO2_CO2_266.chk 

#p ROCCSD(T)/cc-pVTZ 

CO2_CO2_266 

-1 2
O     -2.326000     0.000000     0.000000 
C     -1.163000     0.000000     0.000000 
O      0.000000     0.000000     0.000000 
O      0.000000     4.520000     0.000000 
C      0.000000     5.683000     0.000000 
O      0.000000     6.846000     0.000000 


