%NProcShared=8 
%Mem=6GB  
%Chk=CO2_CO2_219.chk 

#p ROCCSD(T)/cc-pVTZ 

CO2_CO2_219 

-1 2
O     -2.326000     0.000000     0.000000 
C     -1.163000     0.000000     0.000000 
O      0.000000     0.000000     0.000000 
O      3.920000     0.000000     0.000000 
C      5.083000     0.000000     0.000000 
O      6.246000     0.000000     0.000000 


