%NProcShared=8 
%Mem=6GB  
%Chk=CO2_CO2_46.chk 

#p ROCCSD(T)/cc-pVTZ 

CO2_CO2_46 

-1 2
O     -2.326000     0.000000     0.000000 
C     -1.163000     0.000000     0.000000 
O      0.000000     0.000000     0.000000 
O      1.131371     1.131371     0.000000 
C      1.953736     1.953736     0.000000 
O      2.776101     2.776101     0.000000 


