%NProcShared=8 
%Mem=6GB  
%Chk=CO2_CO2_151.chk 

#p ROCCSD(T)/cc-pVTZ 

CO2_CO2_151 

-1 2
O     -2.326000     0.000000     0.000000 
C     -1.163000     0.000000     0.000000 
O      0.000000     0.000000     0.000000 
O      2.121320     2.121320     0.000000 
C      2.943686     2.943686     0.000000 
O      3.766051     3.766051     0.000000 


