%NProcShared=8 
%Mem=6GB  
%Chk=CO2_CO2_22.chk 

#p ROCCSD(T)/cc-pVTZ 

CO2_CO2_22 

-1 2
O     -2.326000     0.000000     0.000000 
C     -1.163000     0.000000     0.000000 
O      0.000000     0.000000     0.000000 
O      0.905097     0.905097     0.000000 
C      1.727462     1.727462     0.000000 
O      2.549827     2.549827     0.000000 


