%NProcShared=8 
%Mem=6GB  
%Chk=CO2_CO2_281.chk 

#p ROCCSD(T)/cc-pVTZ 

CO2_CO2_281 

-1 2
O     -2.326000     0.000000     0.000000 
C     -1.163000     0.000000     0.000000 
O      0.000000     0.000000     0.000000 
O      0.000000     4.720000     0.000000 
C      0.000000     5.883000     0.000000 
O      0.000000     7.046000     0.000000 


