%NProcShared=8 
%Mem=6GB  
%Chk=CO2_CO2_220.chk 

#p ROCCSD(T)/cc-pVTZ 

CO2_CO2_220 

-1 2
O     -2.326000     0.000000     0.000000 
C     -1.163000     0.000000     0.000000 
O      0.000000     0.000000     0.000000 
O      2.771859     2.771859     0.000000 
C      3.594224     3.594224     0.000000 
O      4.416589     4.416589     0.000000 


