%NProcShared=8 
%Mem=6GB  
%Chk=CO2_CO2_246.chk 

#p ROCCSD(T)/cc-pVTZ 

CO2_CO2_246 

-1 2
O     -2.326000     0.000000     0.000000 
C     -1.163000     0.000000     0.000000 
O      0.000000     0.000000     0.000000 
O      4.280000     0.000000     0.000000 
C      5.443000     0.000000     0.000000 
O      6.606000     0.000000     0.000000 


