%NProcShared=8 
%Mem=6GB  
%Chk=CO2_CO2_145.chk 

#p ROCCSD(T)/cc-pVTZ 

CO2_CO2_145 

-1 2
O     -2.326000     0.000000     0.000000 
C     -1.163000     0.000000     0.000000 
O      0.000000     0.000000     0.000000 
O      2.064752     2.064752     0.000000 
C      2.887117     2.887117     0.000000 
O      3.709482     3.709482     0.000000 


