%NProcShared=8 
%Mem=6GB  
%Chk=CO2_CO2_91.chk 

#p ROCCSD(T)/cc-pVTZ 

CO2_CO2_91 

-1 2
O     -2.326000     0.000000     0.000000 
C     -1.163000     0.000000     0.000000 
O      0.000000     0.000000     0.000000 
O      1.555635     1.555635     0.000000 
C      2.378000     2.378000     0.000000 
O      3.200365     3.200365     0.000000 


