%NProcShared=8 
%Mem=6GB  
%Chk=CO2_CO2_278.chk 

#p ROCCSD(T)/cc-pVTZ 

CO2_CO2_278 

-1 2
O     -2.326000     0.000000     0.000000 
C     -1.163000     0.000000     0.000000 
O      0.000000     0.000000     0.000000 
O      0.000000     4.680000     0.000000 
C      0.000000     5.843000     0.000000 
O      0.000000     7.006000     0.000000 


