%NProcShared=8 
%Mem=6GB  
%Chk=CO2_CO2_298.chk 

#p ROCCSD(T)/cc-pVTZ 

CO2_CO2_298 

-1 2
O     -2.326000     0.000000     0.000000 
C     -1.163000     0.000000     0.000000 
O      0.000000     0.000000     0.000000 
O      3.507250     3.507250     0.000000 
C      4.329615     4.329615     0.000000 
O      5.151980     5.151980     0.000000 


