%NProcShared=8 
%Mem=6GB  
%Chk=CO2_CO2_64.chk 

#p ROCCSD(T)/cc-pVTZ 

CO2_CO2_64 

-1 2
O     -2.326000     0.000000     0.000000 
C     -1.163000     0.000000     0.000000 
O      0.000000     0.000000     0.000000 
O      1.301076     1.301076     0.000000 
C      2.123442     2.123442     0.000000 
O      2.945807     2.945807     0.000000 


