%NProcShared=8 
%Mem=6GB  
%Chk=CO2_CO2_265.chk 

#p ROCCSD(T)/cc-pVTZ 

CO2_CO2_265 

-1 2
O     -2.326000     0.000000     0.000000 
C     -1.163000     0.000000     0.000000 
O      0.000000     0.000000     0.000000 
O      3.196123     3.196123     0.000000 
C      4.018488     4.018488     0.000000 
O      4.840853     4.840853     0.000000 


