%NProcShared=8 
%Mem=6GB  
%Chk=CO2_CO2_166.chk 

#p ROCCSD(T)/cc-pVTZ 

CO2_CO2_166 

-1 2
O     -2.326000     0.000000     0.000000 
C     -1.163000     0.000000     0.000000 
O      0.000000     0.000000     0.000000 
O      2.262742     2.262742     0.000000 
C      3.085107     3.085107     0.000000 
O      3.907472     3.907472     0.000000 


