%NProcShared=8 
%Mem=6GB  
%Chk=CO2_CO2_97.chk 

#p ROCCSD(T)/cc-pVTZ 

CO2_CO2_97 

-1 2
O     -2.326000     0.000000     0.000000 
C     -1.163000     0.000000     0.000000 
O      0.000000     0.000000     0.000000 
O      1.612203     1.612203     0.000000 
C      2.434569     2.434569     0.000000 
O      3.256934     3.256934     0.000000 


