%NProcShared=8 
%Mem=6GB  
%Chk=CO2_CO2_247.chk 

#p ROCCSD(T)/cc-pVTZ 

CO2_CO2_247 

-1 2
O     -2.326000     0.000000     0.000000 
C     -1.163000     0.000000     0.000000 
O      0.000000     0.000000     0.000000 
O      3.026417     3.026417     0.000000 
C      3.848782     3.848782     0.000000 
O      4.671147     4.671147     0.000000 


