%NProcShared=8 
%Mem=6GB  
%Chk=CO2_CO2_292.chk 

#p ROCCSD(T)/cc-pVTZ 

CO2_CO2_292 

-1 2
O     -2.326000     0.000000     0.000000 
C     -1.163000     0.000000     0.000000 
O      0.000000     0.000000     0.000000 
O      3.450681     3.450681     0.000000 
C      4.273046     4.273046     0.000000 
O      5.095411     5.095411     0.000000 


