%NProcShared=8 
%Mem=6GB  
%Chk=CO2_CO2_31.chk 

#p ROCCSD(T)/cc-pVTZ 

CO2_CO2_31 

-1 2
O     -2.326000     0.000000     0.000000 
C     -1.163000     0.000000     0.000000 
O      0.000000     0.000000     0.000000 
O      0.989949     0.989949     0.000000 
C      1.812315     1.812315     0.000000 
O      2.634680     2.634680     0.000000 


