%NProcShared=8 
%Mem=6GB  
%Chk=CO2_CO2_165.chk 

#p ROCCSD(T)/cc-pVTZ 

CO2_CO2_165 

-1 2
O     -2.326000     0.000000     0.000000 
C     -1.163000     0.000000     0.000000 
O      0.000000     0.000000     0.000000 
O      3.200000     0.000000     0.000000 
C      4.363000     0.000000     0.000000 
O      5.526000     0.000000     0.000000 


