%NProcShared=8 
%Mem=6GB  
%Chk=CO2_CO2_157.chk 

#p ROCCSD(T)/cc-pVTZ 

CO2_CO2_157 

-1 2
O     -2.326000     0.000000     0.000000 
C     -1.163000     0.000000     0.000000 
O      0.000000     0.000000     0.000000 
O      2.177889     2.177889     0.000000 
C      3.000254     3.000254     0.000000 
O      3.822619     3.822619     0.000000 


