%NProcShared=8 
%Mem=6GB  
%Chk=CO2_CO2_223.chk 

#p ROCCSD(T)/cc-pVTZ 

CO2_CO2_223 

-1 2
O     -2.326000     0.000000     0.000000 
C     -1.163000     0.000000     0.000000 
O      0.000000     0.000000     0.000000 
O      2.800143     2.800143     0.000000 
C      3.622508     3.622508     0.000000 
O      4.444873     4.444873     0.000000 


