%NProcShared=8 
%Mem=6GB  
%Chk=CO2_CO2_6.chk 

#p ROCCSD(T)/cc-pVTZ 

CO2_CO2_6 

-1 2
O     -2.326000     0.000000     0.000000 
C     -1.163000     0.000000     0.000000 
O      0.000000     0.000000     0.000000 
O      1.080000     0.000000     0.000000 
C      2.243000     0.000000     0.000000 
O      3.406000     0.000000     0.000000 


