%NProcShared=8 
%Mem=6GB  
%Chk=CO2_CO2_73.chk 

#p ROCCSD(T)/cc-pVTZ 

CO2_CO2_73 

-1 2
O     -2.326000     0.000000     0.000000 
C     -1.163000     0.000000     0.000000 
O      0.000000     0.000000     0.000000 
O      1.385929     1.385929     0.000000 
C      2.208294     2.208294     0.000000 
O      3.030660     3.030660     0.000000 


