%NProcShared=8 
%Mem=6GB  
%Chk=CO2_CO2_289.chk 

#p ROCCSD(T)/cc-pVTZ 

CO2_CO2_289 

-1 2
O     -2.326000     0.000000     0.000000 
C     -1.163000     0.000000     0.000000 
O      0.000000     0.000000     0.000000 
O      3.422397     3.422397     0.000000 
C      4.244762     4.244762     0.000000 
O      5.067127     5.067127     0.000000 


