%NProcShared=8 
%Mem=6GB  
%Chk=CO2_CO2_107.chk 

#p ROCCSD(T)/cc-pVTZ 

CO2_CO2_107 

-1 2
O     -2.326000     0.000000     0.000000 
C     -1.163000     0.000000     0.000000 
O      0.000000     0.000000     0.000000 
O      0.000000     2.400000     0.000000 
C      0.000000     3.563000     0.000000 
O      0.000000     4.726000     0.000000 


