%NProcShared=8 
%Mem=6GB  
%Chk=CO2_CO2_61.chk 

#p ROCCSD(T)/cc-pVTZ 

CO2_CO2_61 

-1 2
O     -2.326000     0.000000     0.000000 
C     -1.163000     0.000000     0.000000 
O      0.000000     0.000000     0.000000 
O      1.272792     1.272792     0.000000 
C      2.095157     2.095157     0.000000 
O      2.917523     2.917523     0.000000 


