%NProcShared=8 
%Mem=6GB  
%Chk=CO2_CO2_136.chk 

#p ROCCSD(T)/cc-pVTZ 

CO2_CO2_136 

-1 2
O     -2.326000     0.000000     0.000000 
C     -1.163000     0.000000     0.000000 
O      0.000000     0.000000     0.000000 
O      1.979899     1.979899     0.000000 
C      2.802264     2.802264     0.000000 
O      3.624629     3.624629     0.000000 


