%NProcShared=8 
%Mem=6GB  
%Chk=CO2_CO2_214.chk 

#p ROCCSD(T)/cc-pVTZ 

CO2_CO2_214 

-1 2
O     -2.326000     0.000000     0.000000 
C     -1.163000     0.000000     0.000000 
O      0.000000     0.000000     0.000000 
O      2.715290     2.715290     0.000000 
C      3.537655     3.537655     0.000000 
O      4.360020     4.360020     0.000000 


