%NProcShared=8 
%Mem=6GB  
%Chk=CO2_CO2_181.chk 

#p ROCCSD(T)/cc-pVTZ 

CO2_CO2_181 

-1 2
O     -2.326000     0.000000     0.000000 
C     -1.163000     0.000000     0.000000 
O      0.000000     0.000000     0.000000 
O      2.404163     2.404163     0.000000 
C      3.226528     3.226528     0.000000 
O      4.048893     4.048893     0.000000 


