%NProcShared=4 
%Mem=4GB  
%Chk=CO2_CO2_145.chk 

#p CCSD(T)/cc-pVTZ 

CO2_CO2_145 

0 1
O     -2.326000     0.000000     0.000000 
C     -1.163000     0.000000     0.000000 
O      0.000000     0.000000     0.000000 
O      2.064752     2.064752     0.000000 
C      2.887117     2.887117     0.000000 
O      3.709482     3.709482     0.000000 


