%NProcShared=4 
%Mem=4GB  
%Chk=CO2_CO2_268.chk 

#p CCSD(T)/cc-pVTZ 

CO2_CO2_268 

0 1
O     -2.326000     0.000000     0.000000 
C     -1.163000     0.000000     0.000000 
O      0.000000     0.000000     0.000000 
O      3.224407     3.224407     0.000000 
C      4.046772     4.046772     0.000000 
O      4.869137     4.869137     0.000000 


