%NProcShared=4 
%Mem=4GB  
%Chk=CO2_CO2_19.chk 

#p CCSD(T)/cc-pVTZ 

CO2_CO2_19 

0 1
O     -2.326000     0.000000     0.000000 
C     -1.163000     0.000000     0.000000 
O      0.000000     0.000000     0.000000 
O      0.876812     0.876812     0.000000 
C      1.699178     1.699178     0.000000 
O      2.521543     2.521543     0.000000 


