%NProcShared=4 
%Mem=4GB  
%Chk=CO2_CO2_154.chk 

#p CCSD(T)/cc-pVTZ 

CO2_CO2_154 

0 1
O     -2.326000     0.000000     0.000000 
C     -1.163000     0.000000     0.000000 
O      0.000000     0.000000     0.000000 
O      2.149605     2.149605     0.000000 
C      2.971970     2.971970     0.000000 
O      3.794335     3.794335     0.000000 


