%NProcShared=4 
%Mem=4GB  
%Chk=CO2_CO2_286.chk 

#p CCSD(T)/cc-pVTZ 

CO2_CO2_286 

0 1
O     -2.326000     0.000000     0.000000 
C     -1.163000     0.000000     0.000000 
O      0.000000     0.000000     0.000000 
O      3.394113     3.394113     0.000000 
C      4.216478     4.216478     0.000000 
O      5.038843     5.038843     0.000000 


