%NProcShared=4 
%Mem=4GB  
%Chk=CO2_CO2_256.chk 

#p CCSD(T)/cc-pVTZ 

CO2_CO2_256 

0 1
O     -2.326000     0.000000     0.000000 
C     -1.163000     0.000000     0.000000 
O      0.000000     0.000000     0.000000 
O      3.111270     3.111270     0.000000 
C      3.933635     3.933635     0.000000 
O      4.756000     4.756000     0.000000 


