%NProcShared=4 
%Mem=4GB  
%Chk=CO2_CO2_88.chk 

#p CCSD(T)/cc-pVTZ 

CO2_CO2_88 

0 1
O     -2.326000     0.000000     0.000000 
C     -1.163000     0.000000     0.000000 
O      0.000000     0.000000     0.000000 
O      1.527351     1.527351     0.000000 
C      2.349716     2.349716     0.000000 
O      3.172081     3.172081     0.000000 


