%NProcShared=4 
%Mem=4GB  
%Chk=CO2_CO2_276.chk 

#p CCSD(T)/cc-pVTZ 

CO2_CO2_276 

0 1
O     -2.326000     0.000000     0.000000 
C     -1.163000     0.000000     0.000000 
O      0.000000     0.000000     0.000000 
O      4.680000     0.000000     0.000000 
C      5.843000     0.000000     0.000000 
O      7.006000     0.000000     0.000000 


