%NProcShared=4 
%Mem=4GB  
%Chk=CO2_CO2_169.chk 

#p CCSD(T)/cc-pVTZ 

CO2_CO2_169 

0 1
O     -2.326000     0.000000     0.000000 
C     -1.163000     0.000000     0.000000 
O      0.000000     0.000000     0.000000 
O      2.291026     2.291026     0.000000 
C      3.113391     3.113391     0.000000 
O      3.935756     3.935756     0.000000 


