%NProcShared=4 
%Mem=4GB  
%Chk=CO2_CO2_171.chk 

#p CCSD(T)/cc-pVTZ 

CO2_CO2_171 

0 1
O     -2.326000     0.000000     0.000000 
C     -1.163000     0.000000     0.000000 
O      0.000000     0.000000     0.000000 
O      3.280000     0.000000     0.000000 
C      4.443000     0.000000     0.000000 
O      5.606000     0.000000     0.000000 


