%NProcShared=4 
%Mem=4GB  
%Chk=CO2_CO2_103.chk 

#p CCSD(T)/cc-pVTZ 

CO2_CO2_103 

0 1
O     -2.326000     0.000000     0.000000 
C     -1.163000     0.000000     0.000000 
O      0.000000     0.000000     0.000000 
O      1.668772     1.668772     0.000000 
C      2.491137     2.491137     0.000000 
O      3.313502     3.313502     0.000000 


