%NProcShared=4 
%Mem=4GB  
%Chk=CO2_CO2_172.chk 

#p CCSD(T)/cc-pVTZ 

CO2_CO2_172 

0 1
O     -2.326000     0.000000     0.000000 
C     -1.163000     0.000000     0.000000 
O      0.000000     0.000000     0.000000 
O      2.319310     2.319310     0.000000 
C      3.141675     3.141675     0.000000 
O      3.964041     3.964041     0.000000 


