%NProcShared=4 
%Mem=4GB  
%Chk=CO2_CO2_25.chk 

#p CCSD(T)/cc-pVTZ 

CO2_CO2_25 

0 1
O     -2.326000     0.000000     0.000000 
C     -1.163000     0.000000     0.000000 
O      0.000000     0.000000     0.000000 
O      0.933381     0.933381     0.000000 
C      1.755746     1.755746     0.000000 
O      2.578111     2.578111     0.000000 


