%NProcShared=4 
%Mem=4GB  
%Chk=CO2_CO2_205.chk 

#p CCSD(T)/cc-pVTZ 

CO2_CO2_205 

0 1
O     -2.326000     0.000000     0.000000 
C     -1.163000     0.000000     0.000000 
O      0.000000     0.000000     0.000000 
O      2.630437     2.630437     0.000000 
C      3.452802     3.452802     0.000000 
O      4.275168     4.275168     0.000000 


