%NProcShared=4 
%Mem=4GB  
%Chk=CO2_CO2_271.chk 

#p CCSD(T)/cc-pVTZ 

CO2_CO2_271 

0 1
O     -2.326000     0.000000     0.000000 
C     -1.163000     0.000000     0.000000 
O      0.000000     0.000000     0.000000 
O      3.252691     3.252691     0.000000 
C      4.075056     4.075056     0.000000 
O      4.897422     4.897422     0.000000 


