%NProcShared=4 
%Mem=4GB  
%Chk=CO2_CO2_67.chk 

#p CCSD(T)/cc-pVTZ 

CO2_CO2_67 

0 1
O     -2.326000     0.000000     0.000000 
C     -1.163000     0.000000     0.000000 
O      0.000000     0.000000     0.000000 
O      1.329361     1.329361     0.000000 
C      2.151726     2.151726     0.000000 
O      2.974091     2.974091     0.000000 


