%NProcShared=4 
%Mem=4GB  
%Chk=CO2_CO2_244.chk 

#p CCSD(T)/cc-pVTZ 

CO2_CO2_244 

0 1
O     -2.326000     0.000000     0.000000 
C     -1.163000     0.000000     0.000000 
O      0.000000     0.000000     0.000000 
O      2.998133     2.998133     0.000000 
C      3.820498     3.820498     0.000000 
O      4.642863     4.642863     0.000000 


