%NProcShared=4 
%Mem=4GB  
%Chk=CO2_CO2_262.chk 

#p CCSD(T)/cc-pVTZ 

CO2_CO2_262 

0 1
O     -2.326000     0.000000     0.000000 
C     -1.163000     0.000000     0.000000 
O      0.000000     0.000000     0.000000 
O      3.167838     3.167838     0.000000 
C      3.990204     3.990204     0.000000 
O      4.812569     4.812569     0.000000 


