%NProcShared=4 
%Mem=4GB  
%Chk=CO2_CO2_57.chk 

#p CCSD(T)/cc-pVTZ 

CO2_CO2_57 

0 1
O     -2.326000     0.000000     0.000000 
C     -1.163000     0.000000     0.000000 
O      0.000000     0.000000     0.000000 
O      1.760000     0.000000     0.000000 
C      2.923000     0.000000     0.000000 
O      4.086000     0.000000     0.000000 


