%NProcShared=4 
%Mem=4GB  
%Chk=CO2_CO2_68.chk 

#p CCSD(T)/cc-pVTZ 

CO2_CO2_68 

0 1
O     -2.326000     0.000000     0.000000 
C     -1.163000     0.000000     0.000000 
O      0.000000     0.000000     0.000000 
O      0.000000     1.880000     0.000000 
C      0.000000     3.043000     0.000000 
O      0.000000     4.206000     0.000000 


