%NProcShared=4 
%Mem=4GB  
%Chk=CO2_CO2_238.chk 

#p CCSD(T)/cc-pVTZ 

CO2_CO2_238 

0 1
O     -2.326000     0.000000     0.000000 
C     -1.163000     0.000000     0.000000 
O      0.000000     0.000000     0.000000 
O      2.941564     2.941564     0.000000 
C      3.763929     3.763929     0.000000 
O      4.586295     4.586295     0.000000 


