%NProcShared=4 
%Mem=4GB  
%Chk=CO2_CO2_40.chk 

#p CCSD(T)/cc-pVTZ 

CO2_CO2_40 

0 1
O     -2.326000     0.000000     0.000000 
C     -1.163000     0.000000     0.000000 
O      0.000000     0.000000     0.000000 
O      1.074802     1.074802     0.000000 
C      1.897167     1.897167     0.000000 
O      2.719533     2.719533     0.000000 


