%NProcShared=4 
%Mem=4GB  
%Chk=CO2_CO2_139.chk 

#p CCSD(T)/cc-pVTZ 

CO2_CO2_139 

0 1
O     -2.326000     0.000000     0.000000 
C     -1.163000     0.000000     0.000000 
O      0.000000     0.000000     0.000000 
O      2.008183     2.008183     0.000000 
C      2.830548     2.830548     0.000000 
O      3.652914     3.652914     0.000000 


