%NProcShared=4 
%Mem=4GB  
%Chk=CO2_CO2_157.chk 

#p CCSD(T)/cc-pVTZ 

CO2_CO2_157 

0 1
O     -2.326000     0.000000     0.000000 
C     -1.163000     0.000000     0.000000 
O      0.000000     0.000000     0.000000 
O      2.177889     2.177889     0.000000 
C      3.000254     3.000254     0.000000 
O      3.822619     3.822619     0.000000 


