%NProcShared=4 
%Mem=4GB  
%Chk=CO2_CO2_92.chk 

#p CCSD(T)/cc-pVTZ 

CO2_CO2_92 

0 1
O     -2.326000     0.000000     0.000000 
C     -1.163000     0.000000     0.000000 
O      0.000000     0.000000     0.000000 
O      0.000000     2.200000     0.000000 
C      0.000000     3.363000     0.000000 
O      0.000000     4.526000     0.000000 


