%NProcShared=4 
%Mem=4GB  
%Chk=CO2_CO2_37.chk 

#p CCSD(T)/cc-pVTZ 

CO2_CO2_37 

0 1
O     -2.326000     0.000000     0.000000 
C     -1.163000     0.000000     0.000000 
O      0.000000     0.000000     0.000000 
O      1.046518     1.046518     0.000000 
C      1.868883     1.868883     0.000000 
O      2.691248     2.691248     0.000000 


