%NProcShared=4 
%Mem=4GB  
%Chk=CO2_CO2_152.chk 

#p CCSD(T)/cc-pVTZ 

CO2_CO2_152 

0 1
O     -2.326000     0.000000     0.000000 
C     -1.163000     0.000000     0.000000 
O      0.000000     0.000000     0.000000 
O      0.000000     3.000000     0.000000 
C      0.000000     4.163000     0.000000 
O      0.000000     5.326000     0.000000 


