%NProcShared=4 
%Mem=4GB  
%Chk=CO2_CO2_1.chk 

#p CCSD(T)/cc-pVTZ 

CO2_CO2_1 

0 1
O     -2.326000     0.000000     0.000000 
C     -1.163000     0.000000     0.000000 
O      0.000000     0.000000     0.000000 
O      0.707107     0.707107     0.000000 
C      1.529472     1.529472     0.000000 
O      2.351837     2.351837     0.000000 


