%NProcShared=4 
%Mem=4GB  
%Chk=CO2_CO2_135.chk 

#p CCSD(T)/cc-pVTZ 

CO2_CO2_135 

0 1
O     -2.326000     0.000000     0.000000 
C     -1.163000     0.000000     0.000000 
O      0.000000     0.000000     0.000000 
O      2.800000     0.000000     0.000000 
C      3.963000     0.000000     0.000000 
O      5.126000     0.000000     0.000000 


