%NProcShared=4 
%Mem=4GB  
%Chk=CO2_CO2_229.chk 

#p CCSD(T)/cc-pVTZ 

CO2_CO2_229 

0 1
O     -2.326000     0.000000     0.000000 
C     -1.163000     0.000000     0.000000 
O      0.000000     0.000000     0.000000 
O      2.856711     2.856711     0.000000 
C      3.679077     3.679077     0.000000 
O      4.501442     4.501442     0.000000 


