%NProcShared=4 
%Mem=4GB  
%Chk=CO2_CO2_7.chk 

#p CCSD(T)/cc-pVTZ 

CO2_CO2_7 

0 1
O     -2.326000     0.000000     0.000000 
C     -1.163000     0.000000     0.000000 
O      0.000000     0.000000     0.000000 
O      0.763675     0.763675     0.000000 
C      1.586041     1.586041     0.000000 
O      2.408406     2.408406     0.000000 


