%NProcShared=4 
%Mem=4GB  
%Chk=CO2_CO2_118.chk 

#p CCSD(T)/cc-pVTZ 

CO2_CO2_118 

0 1
O     -2.326000     0.000000     0.000000 
C     -1.163000     0.000000     0.000000 
O      0.000000     0.000000     0.000000 
O      1.810193     1.810193     0.000000 
C      2.632559     2.632559     0.000000 
O      3.454924     3.454924     0.000000 


