%NProcShared=4 
%Mem=4GB  
%Chk=CO2_CO2_70.chk 

#p CCSD(T)/cc-pVTZ 

CO2_CO2_70 

0 1
O     -2.326000     0.000000     0.000000 
C     -1.163000     0.000000     0.000000 
O      0.000000     0.000000     0.000000 
O      1.357645     1.357645     0.000000 
C      2.180010     2.180010     0.000000 
O      3.002375     3.002375     0.000000 


