%NProcShared=4 
%Mem=4GB  
%Chk=CO2_CO2_253.chk 

#p CCSD(T)/cc-pVTZ 

CO2_CO2_253 

0 1
O     -2.326000     0.000000     0.000000 
C     -1.163000     0.000000     0.000000 
O      0.000000     0.000000     0.000000 
O      3.082986     3.082986     0.000000 
C      3.905351     3.905351     0.000000 
O      4.727716     4.727716     0.000000 


