%NProcShared=4 
%Mem=4GB  
%Chk=CO2_CO2_211.chk 

#p CCSD(T)/cc-pVTZ 

CO2_CO2_211 

0 1
O     -2.326000     0.000000     0.000000 
C     -1.163000     0.000000     0.000000 
O      0.000000     0.000000     0.000000 
O      2.687006     2.687006     0.000000 
C      3.509371     3.509371     0.000000 
O      4.331736     4.331736     0.000000 


