%NProcShared=4 
%Mem=4GB  
%Chk=CO2_CO2_241.chk 

#p CCSD(T)/cc-pVTZ 

CO2_CO2_241 

0 1
O     -2.326000     0.000000     0.000000 
C     -1.163000     0.000000     0.000000 
O      0.000000     0.000000     0.000000 
O      2.969848     2.969848     0.000000 
C      3.792214     3.792214     0.000000 
O      4.614579     4.614579     0.000000 


