%NProcShared=4 
%Mem=4GB  
%Chk=CO2_CO2_117.chk 

#p CCSD(T)/cc-pVTZ 

CO2_CO2_117 

0 1
O     -2.326000     0.000000     0.000000 
C     -1.163000     0.000000     0.000000 
O      0.000000     0.000000     0.000000 
O      2.560000     0.000000     0.000000 
C      3.723000     0.000000     0.000000 
O      4.886000     0.000000     0.000000 


