%NProcShared=4 
%Mem=4GB  
%Chk=CO2_CO2_9.chk 

#p CCSD(T)/cc-pVTZ 

CO2_CO2_9 

0 1
O     -2.326000     0.000000     0.000000 
C     -1.163000     0.000000     0.000000 
O      0.000000     0.000000     0.000000 
O      1.120000     0.000000     0.000000 
C      2.283000     0.000000     0.000000 
O      3.446000     0.000000     0.000000 


