%NProcShared=4 
%Mem=4GB  
%Chk=CO2_CO2_208.chk 

#p CCSD(T)/cc-pVTZ 

CO2_CO2_208 

0 1
O     -2.326000     0.000000     0.000000 
C     -1.163000     0.000000     0.000000 
O      0.000000     0.000000     0.000000 
O      2.658721     2.658721     0.000000 
C      3.481087     3.481087     0.000000 
O      4.303452     4.303452     0.000000 


