%NProcShared=4 
%Mem=4GB  
%Chk=CO2_CO2_273.chk 

#p CCSD(T)/cc-pVTZ 

CO2_CO2_273 

0 1
O     -2.326000     0.000000     0.000000 
C     -1.163000     0.000000     0.000000 
O      0.000000     0.000000     0.000000 
O      4.640000     0.000000     0.000000 
C      5.803000     0.000000     0.000000 
O      6.966000     0.000000     0.000000 


