%NProcShared=4 
%Mem=4GB  
%Chk=CO2_CO2_250.chk 

#p CCSD(T)/cc-pVTZ 

CO2_CO2_250 

0 1
O     -2.326000     0.000000     0.000000 
C     -1.163000     0.000000     0.000000 
O      0.000000     0.000000     0.000000 
O      3.054701     3.054701     0.000000 
C      3.877066     3.877066     0.000000 
O      4.699432     4.699432     0.000000 


