%NProcShared=4 
%Mem=4GB  
%Chk=CO2_CO2_124.chk 

#p CCSD(T)/cc-pVTZ 

CO2_CO2_124 

0 1
O     -2.326000     0.000000     0.000000 
C     -1.163000     0.000000     0.000000 
O      0.000000     0.000000     0.000000 
O      1.866762     1.866762     0.000000 
C      2.689127     2.689127     0.000000 
O      3.511492     3.511492     0.000000 


