%NProcShared=4 
%Mem=4GB  
%Chk=CO2_CO2_195.chk 

#p CCSD(T)/cc-pVTZ 

CO2_CO2_195 

0 1
O     -2.326000     0.000000     0.000000 
C     -1.163000     0.000000     0.000000 
O      0.000000     0.000000     0.000000 
O      3.600000     0.000000     0.000000 
C      4.763000     0.000000     0.000000 
O      5.926000     0.000000     0.000000 


