%NProcShared=4 
%Mem=4GB  
%Chk=H2O_H2O_986.chk 

#p CCSD(T)/cc-pVTZ 

H2O_H2O_986

0 1
O             -0.000000         -0.009833          0.000000
H             -0.799571         -0.580965          0.000000
H              0.799571         -0.580965          0.000000
O             -2.300195         -1.645786          0.000000
H             -3.277919         -1.547992          0.000000
H             -2.075619         -2.602380          0.000000

