%NProcShared=4 
%Mem=4GB  
%Chk=H2O_H2O_4813.chk 

#p CCSD(T)/cc-pVTZ 

H2O_H2O_4813

0 1
O             -0.000000         -0.009833          0.000000
H             -0.799571         -0.580965          0.000000
H              0.799571         -0.580965          0.000000
O             -4.784126         -3.418493          0.000000
H             -5.740720         -3.193917          0.000000
H             -4.686332         -4.396216          0.000000

