%NProcShared=4 
%Mem=4GB  
%Chk=H2O_H2O_1559.chk 

#p CCSD(T)/cc-pVTZ 

H2O_H2O_1559

0 1
O             -0.000000         -0.009833          0.000000
H             -0.799571         -0.580965          0.000000
H              0.799571         -0.580965          0.000000
O             -2.672440         -1.913191          0.000000
H             -3.654563         -1.943852          0.000000
H             -2.324924         -2.832288          0.000000

