%NProcShared=4 
%Mem=4GB  
%Chk=H2O_H2O_2983.chk 

#p CCSD(T)/cc-pVTZ 

H2O_H2O_2983

0 1
O             -0.000000         -0.009833          0.000000
H             -0.799571         -0.580965          0.000000
H              0.799571         -0.580965          0.000000
O             -3.596941         -2.574290          0.000000
H             -4.574956         -2.669119          0.000000
H             -3.190057         -3.468691          0.000000

