%NProcShared=4 
%Mem=4GB  
%Chk=H2O_H2O_56.chk 

#p CCSD(T)/cc-pVTZ 

H2O_H2O_56

0 1
O             -0.000000         -0.009833          0.000000
H             -0.799571         -0.580965          0.000000
H              0.799571         -0.580965          0.000000
O             -1.697006         -1.218564          0.000000
H             -2.654276         -1.440238          0.000000
H             -1.176861         -2.052204          0.000000

