%NProcShared=4 
%Mem=4GB  
%Chk=H2O_H2O_4565.chk 

#p CCSD(T)/cc-pVTZ 

H2O_H2O_4565

0 1
O             -0.000000         -0.009833          0.000000
H             -0.799571         -0.580965          0.000000
H              0.799571         -0.580965          0.000000
O             -4.622621         -3.301550          0.000000
H             -5.541718         -2.954035          0.000000
H             -4.653281         -4.283673          0.000000

