%NProcShared=4 
%Mem=4GB  
%Chk=H2O_H2O_3975.chk 

#p CCSD(T)/cc-pVTZ 

H2O_H2O_3975

0 1
O             -0.000000         -0.009833          0.000000
H             -0.799571         -0.580965          0.000000
H              0.799571         -0.580965          0.000000
O             -4.241180         -3.039298          0.000000
H             -5.040751         -3.610430          0.000000
H             -3.441609         -3.610430          0.000000

