%NProcShared=4 
%Mem=4GB  
%Chk=H2O_H2O_4839.chk 

#p CCSD(T)/cc-pVTZ 

H2O_H2O_4839

0 1
O             -0.000000         -0.009833          0.000000
H             -0.799571         -0.580965          0.000000
H              0.799571         -0.580965          0.000000
O             -4.800764         -3.429588          0.000000
H             -5.740621         -3.142928          0.000000
H             -4.767125         -4.411614          0.000000

