%NProcShared=4 
%Mem=4GB  
%Chk=H2O_H2O_300.chk 

#p CCSD(T)/cc-pVTZ 

H2O_H2O_300

0 1
O             -0.000000         -0.009833          0.000000
H             -0.799571         -0.580965          0.000000
H              0.799571         -0.580965          0.000000
O             -1.855532         -1.335235          0.000000
H             -2.655103         -1.906367          0.000000
H             -1.055960         -1.906367          0.000000

