%NProcShared=4 
%Mem=4GB  
%Chk=H2O_H2O_4292.chk 

#p CCSD(T)/cc-pVTZ 

H2O_H2O_4292

0 1
O             -0.000000         -0.009833          0.000000
H             -0.799571         -0.580965          0.000000
H              0.799571         -0.580965          0.000000
O             -4.444746         -3.172921          0.000000
H             -5.310620         -2.708413          0.000000
H             -4.603337         -4.142640          0.000000

