%NProcShared=4 
%Mem=4GB  
%Chk=H2O_H2O_192.chk 

#p CCSD(T)/cc-pVTZ 

H2O_H2O_192

0 1
O             -0.000000         -0.009833          0.000000
H             -0.799571         -0.580965          0.000000
H              0.799571         -0.580965          0.000000
O             -1.783206         -1.271790          0.000000
H             -2.649080         -0.807281          0.000000
H             -1.941798         -2.241509          0.000000

