%NProcShared=4 
%Mem=4GB  
%Chk=H2O_H2O_4152.chk 

#p CCSD(T)/cc-pVTZ 

H2O_H2O_4152

0 1
O             -0.000000         -0.009833          0.000000
H             -0.799571         -0.580965          0.000000
H              0.799571         -0.580965          0.000000
O             -4.356065         -3.120360          0.000000
H             -5.223344         -3.582241          0.000000
H             -3.637882         -3.790971          0.000000

