%NProcShared=4 
%Mem=4GB  
%Chk=H2O_H2O_3294.chk 

#p CCSD(T)/cc-pVTZ 

H2O_H2O_3294

0 1
O             -0.000000         -0.009833          0.000000
H             -0.799571         -0.580965          0.000000
H              0.799571         -0.580965          0.000000
O             -3.796082         -2.708042          0.000000
H             -4.593918         -2.134488          0.000000
H             -4.079890         -3.648765          0.000000

