%NProcShared=4 
%Mem=4GB  
%Chk=H2O_H2O_3247.chk 

#p CCSD(T)/cc-pVTZ 

H2O_H2O_3247

0 1
O             -0.000000         -0.009833          0.000000
H             -0.799571         -0.580965          0.000000
H              0.799571         -0.580965          0.000000
O             -3.764062         -2.682980          0.000000
H             -4.434673         -1.964797          0.000000
H             -4.225943         -3.550259          0.000000

