%NProcShared=4 
%Mem=4GB  
%Chk=H2O_H2O_4044.chk 

#p CCSD(T)/cc-pVTZ 

H2O_H2O_4044

0 1
O             -0.000000         -0.009833          0.000000
H             -0.799571         -0.580965          0.000000
H              0.799571         -0.580965          0.000000
O             -4.282949         -3.055810          0.000000
H             -5.080785         -2.482256          0.000000
H             -4.566757         -3.996533          0.000000

