%NProcShared=4 
%Mem=4GB  
%Chk=H2O_H2O_1194.chk 

#p CCSD(T)/cc-pVTZ 

H2O_H2O_1194

0 1
O             -0.000000         -0.009833          0.000000
H             -0.799571         -0.580965          0.000000
H              0.799571         -0.580965          0.000000
O             -2.432855         -1.734292          0.000000
H             -3.230690         -1.160738          0.000000
H             -2.716663         -2.675015          0.000000

