%NProcShared=4 
%Mem=4GB  
%Chk=H2O_H2O_3701.chk 

#p CCSD(T)/cc-pVTZ 

H2O_H2O_3701

0 1
O             -0.000000         -0.009833          0.000000
H             -0.799571         -0.580965          0.000000
H              0.799571         -0.580965          0.000000
O             -4.063305         -2.911762          0.000000
H             -4.898518         -3.429377          0.000000
H             -3.302800         -3.533966          0.000000

