%NProcShared=4 
%Mem=4GB  
%Chk=H2O_H2O_1614.chk 

#p CCSD(T)/cc-pVTZ 

H2O_H2O_1614

0 1
O             -0.000000         -0.009833          0.000000
H             -0.799571         -0.580965          0.000000
H              0.799571         -0.580965          0.000000
O             -2.707236         -1.934186          0.000000
H             -3.647093         -1.647526          0.000000
H             -2.673597         -2.916212          0.000000

