%NProcShared=4 
%Mem=4GB  
%Chk=H2O_H2O_941.chk 

#p CCSD(T)/cc-pVTZ 

H2O_H2O_941

0 1
O             -0.000000         -0.009833          0.000000
H             -0.799571         -0.580965          0.000000
H              0.799571         -0.580965          0.000000
O             -2.269770         -1.620125          0.000000
H             -3.164170         -1.213242          0.000000
H             -2.364599         -2.598140          0.000000

