%NProcShared=4 
%Mem=4GB  
%Chk=H2O_H2O_2390.chk 

#p CCSD(T)/cc-pVTZ 

H2O_H2O_2390

0 1
O             -0.000000         -0.009833          0.000000
H             -0.799571         -0.580965          0.000000
H              0.799571         -0.580965          0.000000
O             -3.210706         -2.293023          0.000000
H             -4.129803         -1.945508          0.000000
H             -3.241367         -3.275146          0.000000

