%NProcShared=4 
%Mem=4GB  
%Chk=H2O_H2O_1665.chk 

#p CCSD(T)/cc-pVTZ 

H2O_H2O_1665

0 1
O             -0.000000         -0.009833          0.000000
H             -0.799571         -0.580965          0.000000
H              0.799571         -0.580965          0.000000
O             -2.740068         -1.956847          0.000000
H             -3.659165         -1.609332          0.000000
H             -2.770729         -2.938970          0.000000

