%NProcShared=4 
%Mem=4GB  
%Chk=H2O_H2O_973.chk 

#p CCSD(T)/cc-pVTZ 

H2O_H2O_973

0 1
O             -0.000000         -0.009833          0.000000
H             -0.799571         -0.580965          0.000000
H              0.799571         -0.580965          0.000000
O             -2.287295         -1.627444          0.000000
H             -2.909499         -0.866938          0.000000
H             -2.804910         -2.462657          0.000000

