%NProcShared=4 
%Mem=4GB  
%Chk=H2O_H2O_341.chk 

#p CCSD(T)/cc-pVTZ 

H2O_H2O_341

0 1
O             -0.000000         -0.009833          0.000000
H             -0.799571         -0.580965          0.000000
H              0.799571         -0.580965          0.000000
O             -1.880276         -1.341911          0.000000
H             -2.774677         -0.935028          0.000000
H             -1.975105         -2.319926          0.000000

