%NProcShared=4 
%Mem=4GB  
%Chk=H2O_H2O_2085.chk 

#p CCSD(T)/cc-pVTZ 

H2O_H2O_2085

0 1
O             -0.000000         -0.009833          0.000000
H             -0.799571         -0.580965          0.000000
H              0.799571         -0.580965          0.000000
O             -3.013770         -2.156254          0.000000
H             -3.995795         -2.122615          0.000000
H             -2.727110         -3.096112          0.000000

