%NProcShared=4 
%Mem=4GB  
%Chk=H2O_H2O_3829.chk 

#p CCSD(T)/cc-pVTZ 

H2O_H2O_3829

0 1
O             -0.000000         -0.009833          0.000000
H             -0.799571         -0.580965          0.000000
H              0.799571         -0.580965          0.000000
O             -4.146352         -2.969410          0.000000
H             -5.066498         -3.314136          0.000000
H             -3.521845         -3.728025          0.000000

