%NProcShared=4 
%Mem=4GB  
%Chk=H2O_H2O_3173.chk 

#p CCSD(T)/cc-pVTZ 

H2O_H2O_3173

0 1
O             -0.000000         -0.009833          0.000000
H             -0.799571         -0.580965          0.000000
H              0.799571         -0.580965          0.000000
O             -3.715438         -2.647563          0.000000
H             -4.337642         -1.887058          0.000000
H             -4.233053         -3.482776          0.000000

