%NProcShared=4 
%Mem=4GB  
%Chk=H2O_H2O_4304.chk 

#p CCSD(T)/cc-pVTZ 

H2O_H2O_4304

0 1
O             -0.000000         -0.009833          0.000000
H             -0.799571         -0.580965          0.000000
H              0.799571         -0.580965          0.000000
O             -4.454701         -3.189663          0.000000
H             -5.374847         -3.534389          0.000000
H             -3.830194         -3.948278          0.000000

