%NProcShared=4 
%Mem=4GB  
%Chk=H2O_H2O_1260.chk 

#p CCSD(T)/cc-pVTZ 

H2O_H2O_1260

0 1
O             -0.000000         -0.009833          0.000000
H             -0.799571         -0.580965          0.000000
H              0.799571         -0.580965          0.000000
O             -2.478216         -1.773709          0.000000
H             -3.460242         -1.740070          0.000000
H             -2.191556         -2.713567          0.000000

