%NProcShared=4 
%Mem=4GB  
%Chk=H2O_H2O_2282.chk 

#p CCSD(T)/cc-pVTZ 

H2O_H2O_2282

0 1
O             -0.000000         -0.009833          0.000000
H             -0.799571         -0.580965          0.000000
H              0.799571         -0.580965          0.000000
O             -3.141964         -2.250010          0.000000
H             -4.111683         -2.408601          0.000000
H             -2.677455         -3.115884          0.000000

