%NProcShared=4 
%Mem=4GB  
%Chk=H2O_H2O_836.chk 

#p CCSD(T)/cc-pVTZ 

H2O_H2O_836

0 1
O             -0.000000         -0.009833          0.000000
H             -0.799571         -0.580965          0.000000
H              0.799571         -0.580965          0.000000
O             -2.202822         -1.576233          0.000000
H             -3.180545         -1.478438          0.000000
H             -1.978246         -2.532826          0.000000

