%NProcShared=4 
%Mem=4GB  
%Chk=H2O_H2O_4876.chk 

#p CCSD(T)/cc-pVTZ 

H2O_H2O_4876

0 1
O             -0.000000         -0.009833          0.000000
H             -0.799571         -0.580965          0.000000
H              0.799571         -0.580965          0.000000
O             -4.826063         -3.456599          0.000000
H             -5.661277         -3.974213          0.000000
H             -4.065558         -4.078802          0.000000

