%NProcShared=4 
%Mem=4GB  
%Chk=H2O_H2O_1310.chk 

#p CCSD(T)/cc-pVTZ 

H2O_H2O_1310

0 1
O             -0.000000         -0.009833          0.000000
H             -0.799571         -0.580965          0.000000
H              0.799571         -0.580965          0.000000
O             -2.510674         -1.796894          0.000000
H             -3.492700         -1.763255          0.000000
H             -2.224014         -2.736751          0.000000

