%NProcShared=4 
%Mem=4GB  
%Chk=H2O_H2O_3083.chk 

#p CCSD(T)/cc-pVTZ 

H2O_H2O_3083

0 1
O             -0.000000         -0.009833          0.000000
H             -0.799571         -0.580965          0.000000
H              0.799571         -0.580965          0.000000
O             -3.661856         -2.620659          0.000000
H             -4.639871         -2.715488          0.000000
H             -3.254973         -3.515060          0.000000

