%NProcShared=4 
%Mem=4GB  
%Chk=H2O_H2O_4284.chk 

#p CCSD(T)/cc-pVTZ 

H2O_H2O_4284

0 1
O             -0.000000         -0.009833          0.000000
H             -0.799571         -0.580965          0.000000
H              0.799571         -0.580965          0.000000
O             -4.441390         -3.176748          0.000000
H             -5.423513         -3.207409          0.000000
H             -4.093874         -4.095845          0.000000

