%NProcShared=4 
%Mem=4GB  
%Chk=H2O_H2O_2221.chk 

#p CCSD(T)/cc-pVTZ 

H2O_H2O_2221

0 1
O             -0.000000         -0.009833          0.000000
H             -0.799571         -0.580965          0.000000
H              0.799571         -0.580965          0.000000
O             -3.098572         -2.208333          0.000000
H             -3.814719         -1.535547          0.000000
H             -3.502741         -3.103963          0.000000

