%NProcShared=4 
%Mem=4GB  
%Chk=H2O_H2O_2130.chk 

#p CCSD(T)/cc-pVTZ 

H2O_H2O_2130

0 1
O             -0.000000         -0.009833          0.000000
H             -0.799571         -0.580965          0.000000
H              0.799571         -0.580965          0.000000
O             -3.043402         -2.180949          0.000000
H             -3.984125         -2.464757          0.000000
H             -2.469848         -2.978785          0.000000

