%NProcShared=4 
%Mem=4GB  
%Chk=H2O_H2O_4174.chk 

#p CCSD(T)/cc-pVTZ 

H2O_H2O_4174

0 1
O             -0.000000         -0.009833          0.000000
H             -0.799571         -0.580965          0.000000
H              0.799571         -0.580965          0.000000
O             -4.364615         -3.110611          0.000000
H             -4.935747         -2.311039          0.000000
H             -4.935747         -3.910182          0.000000

