%NProcShared=4 
%Mem=4GB  
%Chk=H2O_H2O_2218.chk 

#p CCSD(T)/cc-pVTZ 

H2O_H2O_2218

0 1
O             -0.000000         -0.009833          0.000000
H             -0.799571         -0.580965          0.000000
H              0.799571         -0.580965          0.000000
O             -3.098013         -2.210177          0.000000
H             -3.931652         -1.690032          0.000000
H             -3.319687         -3.167448          0.000000

