%NProcShared=4 
%Mem=4GB  
%Chk=H2O_H2O_2682.chk 

#p CCSD(T)/cc-pVTZ 

H2O_H2O_2682

0 1
O             -0.000000         -0.009833          0.000000
H             -0.799571         -0.580965          0.000000
H              0.799571         -0.580965          0.000000
O             -3.401626         -2.435486          0.000000
H             -4.371345         -2.594078          0.000000
H             -2.937118         -3.301360          0.000000

