%NProcShared=4 
%Mem=4GB  
%Chk=H2O_H2O_512.chk 

#p CCSD(T)/cc-pVTZ 

H2O_H2O_512

0 1
O             -0.000000         -0.009833          0.000000
H             -0.799571         -0.580965          0.000000
H              0.799571         -0.580965          0.000000
O             -1.992316         -1.425093          0.000000
H             -2.961550         -1.263562          0.000000
H             -1.830785         -2.394327          0.000000

