%NProcShared=4 
%Mem=4GB  
%Chk=H2O_H2O_3818.chk 

#p CCSD(T)/cc-pVTZ 

H2O_H2O_3818

0 1
O             -0.000000         -0.009833          0.000000
H             -0.799571         -0.580965          0.000000
H              0.799571         -0.580965          0.000000
O             -4.136662         -2.952082          0.000000
H             -4.970302         -2.431937          0.000000
H             -4.358337         -3.909352          0.000000

