%NProcShared=4 
%Mem=4GB  
%Chk=H2O_H2O_261.chk 

#p CCSD(T)/cc-pVTZ 

H2O_H2O_261

0 1
O             -0.000000         -0.009833          0.000000
H             -0.799571         -0.580965          0.000000
H              0.799571         -0.580965          0.000000
O             -1.829557         -1.309611          0.000000
H             -2.807280         -1.211816          0.000000
H             -1.604981         -2.266204          0.000000

