%NProcShared=4 
%Mem=4GB  
%Chk=H2O_H2O_2616.chk 

#p CCSD(T)/cc-pVTZ 

H2O_H2O_2616

0 1
O             -0.000000         -0.009833          0.000000
H             -0.799571         -0.580965          0.000000
H              0.799571         -0.580965          0.000000
O             -3.357106         -2.396807          0.000000
H             -4.251507         -1.989924          0.000000
H             -3.451935         -3.374822          0.000000

