%NProcShared=4 
%Mem=4GB  
%Chk=H2O_H2O_1482.chk 

#p CCSD(T)/cc-pVTZ 

H2O_H2O_1482

0 1
O             -0.000000         -0.009833          0.000000
H             -0.799571         -0.580965          0.000000
H              0.799571         -0.580965          0.000000
O             -2.622639         -1.879057          0.000000
H             -3.592358         -2.037649          0.000000
H             -2.158130         -2.744932          0.000000

