%NProcShared=4 
%Mem=4GB  
%Chk=H2O_H2O_757.chk 

#p CCSD(T)/cc-pVTZ 

H2O_H2O_757

0 1
O             -0.000000         -0.009833          0.000000
H             -0.799571         -0.580965          0.000000
H              0.799571         -0.580965          0.000000
O             -2.152001         -1.542882          0.000000
H             -3.121720         -1.701473          0.000000
H             -1.687493         -2.408756          0.000000

