%NProcShared=4 
%Mem=4GB  
%Chk=H2O_H2O_7.chk 

#p CCSD(T)/cc-pVTZ 

H2O_H2O_7

0 1
O             -0.000000         -0.009833          0.000000
H             -0.799571         -0.580965          0.000000
H              0.799571         -0.580965          0.000000
O             -1.665134         -1.195114          0.000000
H             -2.634853         -1.353705          0.000000
H             -1.200625         -2.060988          0.000000

