%NProcShared=4 
%Mem=4GB  
%Chk=H2O_H2O_157.chk 

#p CCSD(T)/cc-pVTZ 

H2O_H2O_157

0 1
O             -0.000000         -0.009833          0.000000
H             -0.799571         -0.580965          0.000000
H              0.799571         -0.580965          0.000000
O             -1.762507         -1.264667          0.000000
H             -2.732226         -1.423259          0.000000
H             -1.297999         -2.130542          0.000000

