%NProcShared=4 
%Mem=4GB  
%Chk=H2O_H2O_616.chk 

#p CCSD(T)/cc-pVTZ 

H2O_H2O_616

0 1
O             -0.000000         -0.009833          0.000000
H             -0.799571         -0.580965          0.000000
H              0.799571         -0.580965          0.000000
O             -2.058794         -1.469426          0.000000
H             -2.953195         -1.062543          0.000000
H             -2.153623         -2.447441          0.000000

