%NProcShared=4 
%Mem=4GB  
%Chk=H2O_H2O_4369.chk 

#p CCSD(T)/cc-pVTZ 

H2O_H2O_4369

0 1
O             -0.000000         -0.009833          0.000000
H             -0.799571         -0.580965          0.000000
H              0.799571         -0.580965          0.000000
O             -4.493924         -3.206510          0.000000
H             -5.291760         -2.632956          0.000000
H             -4.777733         -4.147232          0.000000

