%NProcShared=4 
%Mem=4GB  
%Chk=H2O_H2O_4505.chk 

#p CCSD(T)/cc-pVTZ 

H2O_H2O_4505

0 1
O             -0.000000         -0.009833          0.000000
H             -0.799571         -0.580965          0.000000
H              0.799571         -0.580965          0.000000
O             -4.585147         -3.282214          0.000000
H             -5.525870         -3.566022          0.000000
H             -4.011594         -4.080050          0.000000

