%NProcShared=4 
%Mem=4GB  
%Chk=H2O_H2O_2301.chk 

#p CCSD(T)/cc-pVTZ 

H2O_H2O_2301

0 1
O             -0.000000         -0.009833          0.000000
H             -0.799571         -0.580965          0.000000
H              0.799571         -0.580965          0.000000
O             -3.154487         -2.262595          0.000000
H             -3.989700         -2.780210          0.000000
H             -2.393981         -2.884799          0.000000

