%NProcShared=4 
%Mem=4GB  
%Chk=H2O_H2O_179.chk 

#p CCSD(T)/cc-pVTZ 

H2O_H2O_179

0 1
O             -0.000000         -0.009833          0.000000
H             -0.799571         -0.580965          0.000000
H              0.799571         -0.580965          0.000000
O             -1.776932         -1.276939          0.000000
H             -2.697079         -1.621666          0.000000
H             -1.152425         -2.035554          0.000000

