%NProcShared=4 
%Mem=4GB  
%Chk=H2O_H2O_464.chk 

#p CCSD(T)/cc-pVTZ 

H2O_H2O_464

0 1
O             -0.000000         -0.009833          0.000000
H             -0.799571         -0.580965          0.000000
H              0.799571         -0.580965          0.000000
O             -1.960706         -1.400942          0.000000
H             -2.900564         -1.114282          0.000000
H             -1.927068         -2.382967          0.000000

