%NProcShared=4 
%Mem=4GB  
%Chk=H2O_H2O_396.chk 

#p CCSD(T)/cc-pVTZ 

H2O_H2O_396

0 1
O             -0.000000         -0.009833          0.000000
H             -0.799571         -0.580965          0.000000
H              0.799571         -0.580965          0.000000
O             -1.913863         -1.362097          0.000000
H             -2.630009         -0.689312          0.000000
H             -2.318032         -2.257727          0.000000

