%NProcShared=4 
%Mem=4GB  
%Chk=H2O_H2O_870.chk 

#p CCSD(T)/cc-pVTZ 

H2O_H2O_870

0 1
O             -0.000000         -0.009833          0.000000
H             -0.799571         -0.580965          0.000000
H              0.799571         -0.580965          0.000000
O             -2.222066         -1.582977          0.000000
H             -2.980681         -0.958470          0.000000
H             -2.566792         -2.503123          0.000000

