%NProcShared=4 
%Mem=4GB  
%Chk=H2O_H2O_3956.chk 

#p CCSD(T)/cc-pVTZ 

H2O_H2O_3956

0 1
O             -0.000000         -0.009833          0.000000
H             -0.799571         -0.580965          0.000000
H              0.799571         -0.580965          0.000000
O             -4.228714         -3.026957          0.000000
H             -5.185984         -3.248632          0.000000
H             -3.708569         -3.860597          0.000000

