%NProcShared=4 
%Mem=4GB  
%Chk=H2O_H2O_1031.chk 

#p CCSD(T)/cc-pVTZ 

H2O_H2O_1031

0 1
O             -0.000000         -0.009833          0.000000
H             -0.799571         -0.580965          0.000000
H              0.799571         -0.580965          0.000000
O             -2.329933         -1.670662          0.000000
H             -3.287203         -1.892337          0.000000
H             -1.809788         -2.504302          0.000000

