%NProcShared=4 
%Mem=4GB  
%Chk=H2O_H2O_4980.chk 

#p CCSD(T)/cc-pVTZ 

H2O_H2O_4980

0 1
O             -0.000000         -0.009833          0.000000
H             -0.799571         -0.580965          0.000000
H              0.799571         -0.580965          0.000000
O             -4.893496         -3.502467          0.000000
H             -5.834219         -3.786275          0.000000
H             -4.319943         -4.300303          0.000000

