%NProcShared=4 
%Mem=4GB  
%Chk=H2O_H2O_1436.chk 

#p CCSD(T)/cc-pVTZ 

H2O_H2O_1436

0 1
O             -0.000000         -0.009833          0.000000
H             -0.799571         -0.580965          0.000000
H              0.799571         -0.580965          0.000000
O             -2.592316         -1.854447          0.000000
H             -3.570039         -1.756653          0.000000
H             -2.367740         -2.811041          0.000000

