%NProcShared=4 
%Mem=4GB  
%Chk=H2O_H2O_4331.chk 

#p CCSD(T)/cc-pVTZ 

H2O_H2O_4331

0 1
O             -0.000000         -0.009833          0.000000
H             -0.799571         -0.580965          0.000000
H              0.799571         -0.580965          0.000000
O             -4.472148         -3.200841          0.000000
H             -5.429418         -3.422516          0.000000
H             -3.952003         -4.034481          0.000000

