%NProcShared=4 
%Mem=4GB  
%Chk=H2O_H2O_3993.chk 

#p CCSD(T)/cc-pVTZ 

H2O_H2O_3993

0 1
O             -0.000000         -0.009833          0.000000
H             -0.799571         -0.580965          0.000000
H              0.799571         -0.580965          0.000000
O             -4.250265         -3.033228          0.000000
H             -5.083904         -2.513083          0.000000
H             -4.471939         -3.990498          0.000000

