%NProcShared=4 
%Mem=4GB  
%Chk=H2O_H2O_3335.chk 

#p CCSD(T)/cc-pVTZ 

H2O_H2O_3335

0 1
O             -0.000000         -0.009833          0.000000
H             -0.799571         -0.580965          0.000000
H              0.799571         -0.580965          0.000000
O             -3.825214         -2.735867          0.000000
H             -4.807240         -2.702229          0.000000
H             -3.538555         -3.675725          0.000000

