%NProcShared=4 
%Mem=4GB  
%Chk=H2O_H2O_2801.chk 

#p CCSD(T)/cc-pVTZ 

H2O_H2O_2801

0 1
O             -0.000000         -0.009833          0.000000
H             -0.799571         -0.580965          0.000000
H              0.799571         -0.580965          0.000000
O             -3.479065         -2.494441          0.000000
H             -4.314278         -3.012055          0.000000
H             -2.718559         -3.116644          0.000000

