%NProcShared=4 
%Mem=4GB  
%Chk=H2O_H2O_2818.chk 

#p CCSD(T)/cc-pVTZ 

H2O_H2O_2818

0 1
O             -0.000000         -0.009833          0.000000
H             -0.799571         -0.580965          0.000000
H              0.799571         -0.580965          0.000000
O             -3.487506         -2.488391          0.000000
H             -4.321146         -1.968246          0.000000
H             -3.709181         -3.445662          0.000000

