%NProcShared=4 
%Mem=4GB  
%Chk=H2O_H2O_214.chk 

#p CCSD(T)/cc-pVTZ 

H2O_H2O_214

0 1
O             -0.000000         -0.009833          0.000000
H             -0.799571         -0.580965          0.000000
H              0.799571         -0.580965          0.000000
O             -1.798417         -1.285019          0.000000
H             -2.738275         -0.998359          0.000000
H             -1.764779         -2.267045          0.000000

