%NProcShared=4 
%Mem=4GB  
%Chk=H2O_H2O_122.chk 

#p CCSD(T)/cc-pVTZ 

H2O_H2O_122

0 1
O             -0.000000         -0.009833          0.000000
H             -0.799571         -0.580965          0.000000
H              0.799571         -0.580965          0.000000
O             -1.735450         -1.233947          0.000000
H             -2.406061         -0.515764          0.000000
H             -2.197330         -2.101226          0.000000

