%NProcShared=4 
%Mem=4GB  
%Chk=H2O_H2O_3398.chk 

#p CCSD(T)/cc-pVTZ 

H2O_H2O_3398

0 1
O             -0.000000         -0.009833          0.000000
H             -0.799571         -0.580965          0.000000
H              0.799571         -0.580965          0.000000
O             -3.861498         -2.751894          0.000000
H             -4.483702         -1.991388          0.000000
H             -4.379113         -3.587107          0.000000

