%NProcShared=4 
%Mem=4GB  
%Chk=H2O_H2O_2500.chk 

#p CCSD(T)/cc-pVTZ 

H2O_H2O_2500

0 1
O             -0.000000         -0.009833          0.000000
H             -0.799571         -0.580965          0.000000
H              0.799571         -0.580965          0.000000
O             -3.283675         -2.355355          0.000000
H             -4.083246         -2.926487          0.000000
H             -2.484103         -2.926487          0.000000

