%NProcShared=4 
%Mem=4GB  
%Chk=H2O_H2O_4497.chk 

#p CCSD(T)/cc-pVTZ 

H2O_H2O_4497

0 1
O             -0.000000         -0.009833          0.000000
H             -0.799571         -0.580965          0.000000
H              0.799571         -0.580965          0.000000
O             -4.575507         -3.262594          0.000000
H             -5.246118         -2.544410          0.000000
H             -5.037388         -4.129872          0.000000

