%NProcShared=4 
%Mem=4GB  
%Chk=H2O_H2O_4412.chk 

#p CCSD(T)/cc-pVTZ 

H2O_H2O_4412

0 1
O             -0.000000         -0.009833          0.000000
H             -0.799571         -0.580965          0.000000
H              0.799571         -0.580965          0.000000
O             -4.524024         -3.233486          0.000000
H             -5.493258         -3.071955          0.000000
H             -4.362493         -4.202720          0.000000

