%NProcShared=4 
%Mem=4GB  
%Chk=H2O_H2O_3766.chk 

#p CCSD(T)/cc-pVTZ 

H2O_H2O_3766

0 1
O             -0.000000         -0.009833          0.000000
H             -0.799571         -0.580965          0.000000
H              0.799571         -0.580965          0.000000
O             -4.103635         -2.930051          0.000000
H             -4.998036         -2.523168          0.000000
H             -4.198465         -3.908066          0.000000

