%NProcShared=4 
%Mem=4GB  
%Chk=H2O_H2O_1926.chk 

#p CCSD(T)/cc-pVTZ 

H2O_H2O_1926

0 1
O             -0.000000         -0.009833          0.000000
H             -0.799571         -0.580965          0.000000
H              0.799571         -0.580965          0.000000
O             -2.911053         -2.088711          0.000000
H             -3.746266         -2.606326          0.000000
H             -2.150548         -2.710915          0.000000

