%NProcShared=4 
%Mem=4GB  
%Chk=H2O_H2O_3579.chk 

#p CCSD(T)/cc-pVTZ 

H2O_H2O_3579

0 1
O             -0.000000         -0.009833          0.000000
H             -0.799571         -0.580965          0.000000
H              0.799571         -0.580965          0.000000
O             -3.984062         -2.853487          0.000000
H             -4.904209         -3.198214          0.000000
H             -3.359555         -3.612102          0.000000

