%NProcShared=4 
%Mem=4GB  
%Chk=H2O_H2O_2570.chk 

#p CCSD(T)/cc-pVTZ 

H2O_H2O_2570

0 1
O             -0.000000         -0.009833          0.000000
H             -0.799571         -0.580965          0.000000
H              0.799571         -0.580965          0.000000
O             -3.325631         -2.371251          0.000000
H             -4.084246         -1.746744          0.000000
H             -3.670358         -3.291397          0.000000

