%NProcShared=4 
%Mem=4GB  
%Chk=H2O_H2O_361.chk 

#p CCSD(T)/cc-pVTZ 

H2O_H2O_361

0 1
O             -0.000000         -0.009833          0.000000
H             -0.799571         -0.580965          0.000000
H              0.799571         -0.580965          0.000000
O             -1.894473         -1.355980          0.000000
H             -2.872196         -1.258185          0.000000
H             -1.669897         -2.312573          0.000000

