%NProcShared=4 
%Mem=4GB  
%Chk=H2O_H2O_218.chk 

#p CCSD(T)/cc-pVTZ 

H2O_H2O_218

0 1
O             -0.000000         -0.009833          0.000000
H             -0.799571         -0.580965          0.000000
H              0.799571         -0.580965          0.000000
O             -1.799701         -1.282796          0.000000
H             -2.633341         -0.762651          0.000000
H             -2.021375         -2.240066          0.000000

