%NProcShared=4 
%Mem=4GB  
%Chk=H2O_H2O_543.chk 

#p CCSD(T)/cc-pVTZ 

H2O_H2O_543

0 1
O             -0.000000         -0.009833          0.000000
H             -0.799571         -0.580965          0.000000
H              0.799571         -0.580965          0.000000
O             -2.010676         -1.433495          0.000000
H             -2.844316         -0.913351          0.000000
H             -2.232351         -2.390766          0.000000

