%NProcShared=4 
%Mem=4GB  
%Chk=H2O_H2O_1596.chk 

#p CCSD(T)/cc-pVTZ 

H2O_H2O_1596

0 1
O             -0.000000         -0.009833          0.000000
H             -0.799571         -0.580965          0.000000
H              0.799571         -0.580965          0.000000
O             -2.692850         -1.918526          0.000000
H             -3.408996         -1.245740          0.000000
H             -3.097019         -2.814156          0.000000

