%NProcShared=4 
%Mem=4GB  
%Chk=H2O_H2O_3958.chk 

#p CCSD(T)/cc-pVTZ 

H2O_H2O_3958

0 1
O             -0.000000         -0.009833          0.000000
H             -0.799571         -0.580965          0.000000
H              0.799571         -0.580965          0.000000
O             -4.229868         -3.026388          0.000000
H             -5.207883         -3.121218          0.000000
H             -3.822984         -3.920789          0.000000

