%NProcShared=4 
%Mem=4GB  
%Chk=H2O_H2O_4870.chk 

#p CCSD(T)/cc-pVTZ 

H2O_H2O_4870

0 1
O             -0.000000         -0.009833          0.000000
H             -0.799571         -0.580965          0.000000
H              0.799571         -0.580965          0.000000
O             -4.818690         -3.437739          0.000000
H             -5.577305         -2.813232          0.000000
H             -5.163416         -4.357886          0.000000

