%NProcShared=4 
%Mem=4GB  
%Chk=H2O_H2O_4575.chk 

#p CCSD(T)/cc-pVTZ 

H2O_H2O_4575

0 1
O             -0.000000         -0.009833          0.000000
H             -0.799571         -0.580965          0.000000
H              0.799571         -0.580965          0.000000
O             -4.630674         -3.317512          0.000000
H             -5.430245         -3.888644          0.000000
H             -3.831102         -3.888644          0.000000

