%NProcShared=4 
%Mem=4GB  
%Chk=H2O_H2O_3711.chk 

#p CCSD(T)/cc-pVTZ 

H2O_H2O_3711

0 1
O             -0.000000         -0.009833          0.000000
H             -0.799571         -0.580965          0.000000
H              0.799571         -0.580965          0.000000
O             -4.069145         -2.909343          0.000000
H             -5.046869         -2.811549          0.000000
H             -3.844569         -3.865937          0.000000

