%NProcShared=4 
%Mem=4GB  
%Chk=H2O_H2O_2254.chk 

#p CCSD(T)/cc-pVTZ 

H2O_H2O_2254

0 1
O             -0.000000         -0.009833          0.000000
H             -0.799571         -0.580965          0.000000
H              0.799571         -0.580965          0.000000
O             -3.123931         -2.239097          0.000000
H             -4.044077         -2.583824          0.000000
H             -2.499424         -2.997712          0.000000

