%NProcShared=4 
%Mem=4GB  
%Chk=H2O_H2O_3630.chk 

#p CCSD(T)/cc-pVTZ 

H2O_H2O_3630

0 1
O             -0.000000         -0.009833          0.000000
H             -0.799571         -0.580965          0.000000
H              0.799571         -0.580965          0.000000
O             -4.017136         -2.876484          0.000000
H             -4.957859         -3.160293          0.000000
H             -3.443582         -3.674320          0.000000

