%NProcShared=4 
%Mem=4GB  
%Chk=H2O_H2O_3660.chk 

#p CCSD(T)/cc-pVTZ 

H2O_H2O_3660

0 1
O             -0.000000         -0.009833          0.000000
H             -0.799571         -0.580965          0.000000
H              0.799571         -0.580965          0.000000
O             -4.036190         -2.886567          0.000000
H             -5.018216         -2.852928          0.000000
H             -3.749531         -3.826424          0.000000

