%NProcShared=4 
%Mem=4GB  
%Chk=H2O_H2O_3777.chk 

#p CCSD(T)/cc-pVTZ 

H2O_H2O_3777

0 1
O             -0.000000         -0.009833          0.000000
H             -0.799571         -0.580965          0.000000
H              0.799571         -0.580965          0.000000
O             -4.112632         -2.946476          0.000000
H             -4.979911         -3.408357          0.000000
H             -3.394449         -3.617087          0.000000

