%NProcShared=4 
%Mem=4GB  
%Chk=H2O_H2O_3017.chk 

#p CCSD(T)/cc-pVTZ 

H2O_H2O_3017

0 1
O             -0.000000         -0.009833          0.000000
H             -0.799571         -0.580965          0.000000
H              0.799571         -0.580965          0.000000
O             -3.617072         -2.581716          0.000000
H             -4.482946         -2.117207          0.000000
H             -3.775663         -3.551435          0.000000

