%NProcShared=4 
%Mem=4GB  
%Chk=H2O_H2O_1725.chk 

#p CCSD(T)/cc-pVTZ 

H2O_H2O_1725

0 1
O             -0.000000         -0.009833          0.000000
H             -0.799571         -0.580965          0.000000
H              0.799571         -0.580965          0.000000
O             -2.780579         -1.995994          0.000000
H             -3.580150         -2.567126          0.000000
H             -1.981008         -2.567126          0.000000

