%NProcShared=4 
%Mem=4GB  
%Chk=H2O_H2O_4217.chk 

#p CCSD(T)/cc-pVTZ 

H2O_H2O_4217

0 1
O             -0.000000         -0.009833          0.000000
H             -0.799571         -0.580965          0.000000
H              0.799571         -0.580965          0.000000
O             -4.396059         -3.138144          0.000000
H             -5.261933         -2.673636          0.000000
H             -4.554650         -4.107863          0.000000

