%NProcShared=4 
%Mem=4GB  
%Chk=H2O_H2O_4764.chk 

#p CCSD(T)/cc-pVTZ 

H2O_H2O_4764

0 1
O             -0.000000         -0.009833          0.000000
H             -0.799571         -0.580965          0.000000
H              0.799571         -0.580965          0.000000
O             -4.752077         -3.394811          0.000000
H             -5.691934         -3.108152          0.000000
H             -4.718438         -4.376837          0.000000

