%NProcShared=4 
%Mem=4GB  
%Chk=H2O_H2O_4603.chk 

#p CCSD(T)/cc-pVTZ 

H2O_H2O_4603

0 1
O             -0.000000         -0.009833          0.000000
H             -0.799571         -0.580965          0.000000
H              0.799571         -0.580965          0.000000
O             -4.648821         -3.328916          0.000000
H             -5.544451         -3.733085          0.000000
H             -3.976035         -4.045062          0.000000

