%NProcShared=4 
%Mem=4GB  
%Chk=H2O_H2O_2382.chk 

#p CCSD(T)/cc-pVTZ 

H2O_H2O_2382

0 1
O             -0.000000         -0.009833          0.000000
H             -0.799571         -0.580965          0.000000
H              0.799571         -0.580965          0.000000
O             -3.206879         -2.296379          0.000000
H             -4.176598         -2.454970          0.000000
H             -2.742371         -3.162253          0.000000

