%NProcShared=4 
%Mem=4GB  
%Chk=H2O_H2O_3198.chk 

#p CCSD(T)/cc-pVTZ 

H2O_H2O_3198

0 1
O             -0.000000         -0.009833          0.000000
H             -0.799571         -0.580965          0.000000
H              0.799571         -0.580965          0.000000
O             -3.731667         -2.659156          0.000000
H             -4.353871         -1.898650          0.000000
H             -4.249282         -3.494369          0.000000

