%NProcShared=4 
%Mem=4GB  
%Chk=H2O_H2O_837.chk 

#p CCSD(T)/cc-pVTZ 

H2O_H2O_837

0 1
O             -0.000000         -0.009833          0.000000
H             -0.799571         -0.580965          0.000000
H              0.799571         -0.580965          0.000000
O             -2.203292         -1.575793          0.000000
H             -3.172525         -1.414262          0.000000
H             -2.041761         -2.545026          0.000000

