%NProcShared=4 
%Mem=4GB  
%Chk=H2O_H2O_423.chk 

#p CCSD(T)/cc-pVTZ 

H2O_H2O_423

0 1
O             -0.000000         -0.009833          0.000000
H             -0.799571         -0.580965          0.000000
H              0.799571         -0.580965          0.000000
O             -1.930259         -1.372414          0.000000
H             -2.552463         -0.611908          0.000000
H             -2.447874         -2.207627          0.000000

