%NProcShared=4 
%Mem=4GB  
%Chk=H2O_H2O_2562.chk 

#p CCSD(T)/cc-pVTZ 

H2O_H2O_2562

0 1
O             -0.000000         -0.009833          0.000000
H             -0.799571         -0.580965          0.000000
H              0.799571         -0.580965          0.000000
O             -3.323086         -2.375659          0.000000
H             -4.292319         -2.214128          0.000000
H             -3.161555         -3.344893          0.000000

