%NProcShared=4 
%Mem=4GB  
%Chk=H2O_H2O_456.chk 

#p CCSD(T)/cc-pVTZ 

H2O_H2O_456

0 1
O             -0.000000         -0.009833          0.000000
H             -0.799571         -0.580965          0.000000
H              0.799571         -0.580965          0.000000
O             -1.956668         -1.404040          0.000000
H             -2.913939         -1.625715          0.000000
H             -1.436523         -2.237680          0.000000

