%NProcShared=4 
%Mem=4GB  
%Chk=H2O_H2O_2929.chk 

#p CCSD(T)/cc-pVTZ 

H2O_H2O_2929

0 1
O             -0.000000         -0.009833          0.000000
H             -0.799571         -0.580965          0.000000
H              0.799571         -0.580965          0.000000
O             -3.562111         -2.552088          0.000000
H             -4.482258         -2.896815          0.000000
H             -2.937604         -3.310703          0.000000

