%NProcShared=4 
%Mem=4GB  
%Chk=H2O_H2O_4590.chk 

#p CCSD(T)/cc-pVTZ 

H2O_H2O_4590

0 1
O             -0.000000         -0.009833          0.000000
H             -0.799571         -0.580965          0.000000
H              0.799571         -0.580965          0.000000
O             -4.638850         -3.313142          0.000000
H             -5.557946         -2.965627          0.000000
H             -4.669510         -4.295266          0.000000

