%NProcShared=4 
%Mem=4GB  
%Chk=H2O_H2O_1401.chk 

#p CCSD(T)/cc-pVTZ 

H2O_H2O_1401

0 1
O             -0.000000         -0.009833          0.000000
H             -0.799571         -0.580965          0.000000
H              0.799571         -0.580965          0.000000
O             -2.570246         -1.845274          0.000000
H             -3.405460         -2.362888          0.000000
H             -1.809741         -2.467477          0.000000

