%NProcShared=4 
%Mem=4GB  
%Chk=H2O_H2O_2694.chk 

#p CCSD(T)/cc-pVTZ 

H2O_H2O_2694

0 1
O             -0.000000         -0.009833          0.000000
H             -0.799571         -0.580965          0.000000
H              0.799571         -0.580965          0.000000
O             -3.406588         -2.429828          0.000000
H             -4.204424         -1.856274          0.000000
H             -3.690397         -3.370550          0.000000

