%NProcShared=4 
%Mem=4GB  
%Chk=H2O_H2O_3508.chk 

#p CCSD(T)/cc-pVTZ 

H2O_H2O_3508

0 1
O             -0.000000         -0.009833          0.000000
H             -0.799571         -0.580965          0.000000
H              0.799571         -0.580965          0.000000
O             -3.937747         -2.817728          0.000000
H             -4.915762         -2.912557          0.000000
H             -3.530864         -3.712128          0.000000

