%NProcShared=4 
%Mem=4GB  
%Chk=H2O_H2O_1932.chk 

#p CCSD(T)/cc-pVTZ 

H2O_H2O_1932

0 1
O             -0.000000         -0.009833          0.000000
H             -0.799571         -0.580965          0.000000
H              0.799571         -0.580965          0.000000
O             -2.914759         -2.087718          0.000000
H             -3.884478         -2.246310          0.000000
H             -2.450251         -2.953592          0.000000

