%NProcShared=4 
%Mem=4GB  
%Chk=H2O_H2O_2644.chk 

#p CCSD(T)/cc-pVTZ 

H2O_H2O_2644

0 1
O             -0.000000         -0.009833          0.000000
H             -0.799571         -0.580965          0.000000
H              0.799571         -0.580965          0.000000
O             -3.374131         -2.406643          0.000000
H             -4.171966         -1.833090          0.000000
H             -3.657939         -3.347366          0.000000

