%NProcShared=4 
%Mem=4GB  
%Chk=H2O_H2O_2834.chk 

#p CCSD(T)/cc-pVTZ 

H2O_H2O_2834

0 1
O             -0.000000         -0.009833          0.000000
H             -0.799571         -0.580965          0.000000
H              0.799571         -0.580965          0.000000
O             -3.500114         -2.504397          0.000000
H             -4.482237         -2.535058          0.000000
H             -3.152598         -3.423494          0.000000

