%NProcShared=4 
%Mem=4GB  
%Chk=H2O_H2O_1590.chk 

#p CCSD(T)/cc-pVTZ 

H2O_H2O_1590

0 1
O             -0.000000         -0.009833          0.000000
H             -0.799571         -0.580965          0.000000
H              0.799571         -0.580965          0.000000
O             -2.691382         -1.922071          0.000000
H             -3.610479         -1.574555          0.000000
H             -2.722042         -2.904194          0.000000

