%NProcShared=4 
%Mem=4GB  
%Chk=H2O_H2O_3904.chk 

#p CCSD(T)/cc-pVTZ 

H2O_H2O_3904

0 1
O             -0.000000         -0.009833          0.000000
H             -0.799571         -0.580965          0.000000
H              0.799571         -0.580965          0.000000
O             -4.195038         -3.004186          0.000000
H             -5.115185         -3.348913          0.000000
H             -3.570531         -3.762802          0.000000

