%NProcShared=4 
%Mem=4GB  
%Chk=H2O_H2O_4323.chk 

#p CCSD(T)/cc-pVTZ 

H2O_H2O_4323

0 1
O             -0.000000         -0.009833          0.000000
H             -0.799571         -0.580965          0.000000
H              0.799571         -0.580965          0.000000
O             -4.461968         -3.180808          0.000000
H             -5.084171         -2.420302          0.000000
H             -4.979582         -4.016021          0.000000

