%NProcShared=4 
%Mem=4GB  
%Chk=H2O_H2O_1649.chk 

#p CCSD(T)/cc-pVTZ 

H2O_H2O_1649

0 1
O             -0.000000         -0.009833          0.000000
H             -0.799571         -0.580965          0.000000
H              0.799571         -0.580965          0.000000
O             -2.725496         -1.939792          0.000000
H             -3.296628         -1.140221          0.000000
H             -3.296628         -2.739363          0.000000

