%NProcShared=4 
%Mem=4GB  
%Chk=H2O_H2O_908.chk 

#p CCSD(T)/cc-pVTZ 

H2O_H2O_908

0 1
O             -0.000000         -0.009833          0.000000
H             -0.799571         -0.580965          0.000000
H              0.799571         -0.580965          0.000000
O             -2.249942         -1.612132          0.000000
H             -3.227957         -1.706961          0.000000
H             -1.843059         -2.506533          0.000000

