%NProcShared=4 
%Mem=4GB  
%Chk=H2O_H2O_2620.chk 

#p CCSD(T)/cc-pVTZ 

H2O_H2O_2620

0 1
O             -0.000000         -0.009833          0.000000
H             -0.799571         -0.580965          0.000000
H              0.799571         -0.580965          0.000000
O             -3.358088         -2.394435          0.000000
H             -4.116704         -1.769929          0.000000
H             -3.702815         -3.314582          0.000000

