%NProcShared=4 
%Mem=4GB  
%Chk=H2O_H2O_1012.chk 

#p CCSD(T)/cc-pVTZ 

H2O_H2O_1012

0 1
O             -0.000000         -0.009833          0.000000
H             -0.799571         -0.580965          0.000000
H              0.799571         -0.580965          0.000000
O             -2.316894         -1.656939          0.000000
H             -3.286128         -1.495407          0.000000
H             -2.155363         -2.626172          0.000000

