%NProcShared=4 
%Mem=4GB  
%Chk=H2O_H2O_1706.chk 

#p CCSD(T)/cc-pVTZ 

H2O_H2O_1706

0 1
O             -0.000000         -0.009833          0.000000
H             -0.799571         -0.580965          0.000000
H              0.799571         -0.580965          0.000000
O             -2.768113         -1.983653          0.000000
H             -3.725383         -2.205328          0.000000
H             -2.247968         -2.817293          0.000000

