%NProcShared=4 
%Mem=4GB  
%Chk=H2O_H2O_4845.chk 

#p CCSD(T)/cc-pVTZ 

H2O_H2O_4845

0 1
O             -0.000000         -0.009833          0.000000
H             -0.799571         -0.580965          0.000000
H              0.799571         -0.580965          0.000000
O             -4.802461         -3.426147          0.000000
H             -5.561076         -2.801640          0.000000
H             -5.147187         -4.346293          0.000000

