%NProcShared=4 
%Mem=4GB  
%Chk=H2O_H2O_2422.chk 

#p CCSD(T)/cc-pVTZ 

H2O_H2O_2422

0 1
O             -0.000000         -0.009833          0.000000
H             -0.799571         -0.580965          0.000000
H              0.799571         -0.580965          0.000000
O             -3.228508         -2.300436          0.000000
H             -3.899119         -1.582252          0.000000
H             -3.690389         -3.167714          0.000000

