%NProcShared=4 
%Mem=4GB  
%Chk=H2O_H2O_1947.chk 

#p CCSD(T)/cc-pVTZ 

H2O_H2O_1947

0 1
O             -0.000000         -0.009833          0.000000
H             -0.799571         -0.580965          0.000000
H              0.799571         -0.580965          0.000000
O             -2.920159         -2.080183          0.000000
H             -3.590770         -1.362000          0.000000
H             -3.382040         -2.947461          0.000000

