%NProcShared=4 
%Mem=4GB  
%Chk=H2O_H2O_676.chk 

#p CCSD(T)/cc-pVTZ 

H2O_H2O_676

0 1
O             -0.000000         -0.009833          0.000000
H             -0.799571         -0.580965          0.000000
H              0.799571         -0.580965          0.000000
O             -2.099608         -1.509098          0.000000
H             -2.934822         -2.026713          0.000000
H             -1.339103         -2.131302          0.000000

