%NProcShared=4 
%Mem=4GB  
%Chk=H2O_H2O_1355.chk 

#p CCSD(T)/cc-pVTZ 

H2O_H2O_1355

0 1
O             -0.000000         -0.009833          0.000000
H             -0.799571         -0.580965          0.000000
H              0.799571         -0.580965          0.000000
O             -2.540306         -1.821588          0.000000
H             -3.481029         -2.105397          0.000000
H             -1.966752         -2.619424          0.000000

