%NProcShared=4 
%Mem=4GB  
%Chk=H2O_H2O_3255.chk 

#p CCSD(T)/cc-pVTZ 

H2O_H2O_3255

0 1
O             -0.000000         -0.009833          0.000000
H             -0.799571         -0.580965          0.000000
H              0.799571         -0.580965          0.000000
O             -3.773703         -2.702601          0.000000
H             -4.714425         -2.986409          0.000000
H             -3.200149         -3.500436          0.000000

