%NProcShared=4 
%Mem=4GB  
%Chk=H2O_H2O_2362.chk 

#p CCSD(T)/cc-pVTZ 

H2O_H2O_2362

0 1
O             -0.000000         -0.009833          0.000000
H             -0.799571         -0.580965          0.000000
H              0.799571         -0.580965          0.000000
O             -3.193254         -2.282921          0.000000
H             -4.162488         -2.121390          0.000000
H             -3.031723         -3.252155          0.000000

