%NProcShared=4 
%Mem=4GB  
%Chk=H2O_H2O_743.chk 

#p CCSD(T)/cc-pVTZ 

H2O_H2O_743

0 1
O             -0.000000         -0.009833          0.000000
H             -0.799571         -0.580965          0.000000
H              0.799571         -0.580965          0.000000
O             -2.140508         -1.526234          0.000000
H             -2.974148         -1.006089          0.000000
H             -2.362182         -2.483504          0.000000

