%NProcShared=4 
%Mem=4GB  
%Chk=H2O_H2O_1982.chk 

#p CCSD(T)/cc-pVTZ 

H2O_H2O_1982

0 1
O             -0.000000         -0.009833          0.000000
H             -0.799571         -0.580965          0.000000
H              0.799571         -0.580965          0.000000
O             -2.947217         -2.110903          0.000000
H             -3.916936         -2.269494          0.000000
H             -2.482708         -2.976777          0.000000

