%NProcShared=4 
%Mem=4GB  
%Chk=H2O_H2O_4469.chk 

#p CCSD(T)/cc-pVTZ 

H2O_H2O_4469

0 1
O             -0.000000         -0.009833          0.000000
H             -0.799571         -0.580965          0.000000
H              0.799571         -0.580965          0.000000
O             -4.558840         -3.252879          0.000000
H             -5.356676         -2.679325          0.000000
H             -4.842648         -4.193601          0.000000

