%NProcShared=4 
%Mem=4GB  
%Chk=H2O_H2O_1387.chk 

#p CCSD(T)/cc-pVTZ 

H2O_H2O_1387

0 1
O             -0.000000         -0.009833          0.000000
H             -0.799571         -0.580965          0.000000
H              0.799571         -0.580965          0.000000
O             -2.560327         -1.830822          0.000000
H             -3.529561         -1.669291          0.000000
H             -2.398796         -2.800056          0.000000

