%NProcShared=4 
%Mem=4GB  
%Chk=H2O_H2O_613.chk 

#p CCSD(T)/cc-pVTZ 

H2O_H2O_613

0 1
O             -0.000000         -0.009833          0.000000
H             -0.799571         -0.580965          0.000000
H              0.799571         -0.580965          0.000000
O             -2.057671         -1.470993          0.000000
H             -3.014265         -1.246417          0.000000
H             -1.959877         -2.448716          0.000000

