%NProcShared=4 
%Mem=4GB  
%Chk=H2O_H2O_4327.chk 

#p CCSD(T)/cc-pVTZ 

H2O_H2O_4327

0 1
O             -0.000000         -0.009833          0.000000
H             -0.799571         -0.580965          0.000000
H              0.799571         -0.580965          0.000000
O             -4.469668         -3.201506          0.000000
H             -5.336947         -3.663386          0.000000
H             -3.751485         -3.872116          0.000000

