%NProcShared=4 
%Mem=4GB  
%Chk=H2O_H2O_3170.chk 

#p CCSD(T)/cc-pVTZ 

H2O_H2O_3170

0 1
O             -0.000000         -0.009833          0.000000
H             -0.799571         -0.580965          0.000000
H              0.799571         -0.580965          0.000000
O             -3.715124         -2.649465          0.000000
H             -4.473740         -2.024958          0.000000
H             -4.059851         -3.569612          0.000000

