%NProcShared=4 
%Mem=4GB  
%Chk=H2O_H2O_4807.chk 

#p CCSD(T)/cc-pVTZ 

H2O_H2O_4807

0 1
O             -0.000000         -0.009833          0.000000
H             -0.799571         -0.580965          0.000000
H              0.799571         -0.580965          0.000000
O             -4.781083         -3.420829          0.000000
H             -5.750802         -3.579420          0.000000
H             -4.316574         -4.286703          0.000000

