%NProcShared=4 
%Mem=4GB  
%Chk=H2O_H2O_982.chk 

#p CCSD(T)/cc-pVTZ 

H2O_H2O_982

0 1
O             -0.000000         -0.009833          0.000000
H             -0.799571         -0.580965          0.000000
H              0.799571         -0.580965          0.000000
O             -2.298061         -1.647212          0.000000
H             -3.267780         -1.805804          0.000000
H             -1.833552         -2.513086          0.000000

