%NProcShared=4 
%Mem=4GB  
%Chk=H2O_H2O_2793.chk 

#p CCSD(T)/cc-pVTZ 

H2O_H2O_2793

0 1
O             -0.000000         -0.009833          0.000000
H             -0.799571         -0.580965          0.000000
H              0.799571         -0.580965          0.000000
O             -3.471277         -2.476799          0.000000
H             -4.304917         -1.956654          0.000000
H             -3.692952         -3.434070          0.000000

