%NProcShared=4 
%Mem=4GB  
%Chk=H2O_H2O_719.chk 

#p CCSD(T)/cc-pVTZ 

H2O_H2O_719

0 1
O             -0.000000         -0.009833          0.000000
H             -0.799571         -0.580965          0.000000
H              0.799571         -0.580965          0.000000
O             -2.124505         -1.514039          0.000000
H             -2.922341         -0.940485          0.000000
H             -2.408314         -2.454762          0.000000

