%NProcShared=4 
%Mem=4GB  
%Chk=H2O_H2O_3332.chk 

#p CCSD(T)/cc-pVTZ 

H2O_H2O_3332

0 1
O             -0.000000         -0.009833          0.000000
H             -0.799571         -0.580965          0.000000
H              0.799571         -0.580965          0.000000
O             -3.823577         -2.736885          0.000000
H             -4.793296         -2.895476          0.000000
H             -3.359069         -3.602759          0.000000

