%NProcShared=4 
%Mem=4GB  
%Chk=H2O_H2O_346.chk 

#p CCSD(T)/cc-pVTZ 

H2O_H2O_346

0 1
O             -0.000000         -0.009833          0.000000
H             -0.799571         -0.580965          0.000000
H              0.799571         -0.580965          0.000000
O             -1.881405         -1.338913          0.000000
H             -2.597551         -0.666127          0.000000
H             -2.285574         -2.234543          0.000000

