%NProcShared=4 
%Mem=4GB  
%Chk=H2O_H2O_3278.chk 

#p CCSD(T)/cc-pVTZ 

H2O_H2O_3278

0 1
O             -0.000000         -0.009833          0.000000
H             -0.799571         -0.580965          0.000000
H              0.799571         -0.580965          0.000000
O             -3.788689         -2.714526          0.000000
H             -4.684319         -3.118695          0.000000
H             -3.115904         -3.430672          0.000000

