%NProcShared=4 
%Mem=4GB  
%Chk=H2O_H2O_4034.chk 

#p CCSD(T)/cc-pVTZ 

H2O_H2O_4034

0 1
O             -0.000000         -0.009833          0.000000
H             -0.799571         -0.580965          0.000000
H              0.799571         -0.580965          0.000000
O             -4.279101         -3.060825          0.000000
H             -5.261224         -3.091486          0.000000
H             -3.931585         -3.979922          0.000000

