%NProcShared=4 
%Mem=4GB  
%Chk=H2O_H2O_1179.chk 

#p CCSD(T)/cc-pVTZ 

H2O_H2O_1179

0 1
O             -0.000000         -0.009833          0.000000
H             -0.799571         -0.580965          0.000000
H              0.799571         -0.580965          0.000000
O             -2.426088         -1.740629          0.000000
H             -3.346235         -2.085356          0.000000
H             -1.801581         -2.499245          0.000000

