%NProcShared=4 
%Mem=4GB  
%Chk=H2O_H2O_863.chk 

#p CCSD(T)/cc-pVTZ 

H2O_H2O_863

0 1
O             -0.000000         -0.009833          0.000000
H             -0.799571         -0.580965          0.000000
H              0.799571         -0.580965          0.000000
O             -2.219960         -1.586915          0.000000
H             -3.176554         -1.362339          0.000000
H             -2.122166         -2.564638          0.000000

