%NProcShared=4 
%Mem=4GB  
%Chk=H2O_H2O_4526.chk 

#p CCSD(T)/cc-pVTZ 

H2O_H2O_4526

0 1
O             -0.000000         -0.009833          0.000000
H             -0.799571         -0.580965          0.000000
H              0.799571         -0.580965          0.000000
O             -4.598859         -3.294307          0.000000
H             -5.434072         -3.811922          0.000000
H             -3.838353         -3.916511          0.000000

