%NProcShared=4 
%Mem=4GB  
%Chk=H2O_H2O_4828.chk 

#p CCSD(T)/cc-pVTZ 

H2O_H2O_4828

0 1
O             -0.000000         -0.009833          0.000000
H             -0.799571         -0.580965          0.000000
H              0.799571         -0.580965          0.000000
O             -4.794881         -3.433246          0.000000
H             -5.690511         -3.837415          0.000000
H             -4.122095         -4.149393          0.000000

