%NProcShared=4 
%Mem=4GB  
%Chk=H2O_H2O_2638.chk 

#p CCSD(T)/cc-pVTZ 

H2O_H2O_2638

0 1
O             -0.000000         -0.009833          0.000000
H             -0.799571         -0.580965          0.000000
H              0.799571         -0.580965          0.000000
O             -3.372212         -2.409966          0.000000
H             -4.328806         -2.185390          0.000000
H             -3.274418         -3.387689          0.000000

