%NProcShared=4 
%Mem=4GB  
%Chk=H2O_H2O_2293.chk 

#p CCSD(T)/cc-pVTZ 

H2O_H2O_2293

0 1
O             -0.000000         -0.009833          0.000000
H             -0.799571         -0.580965          0.000000
H              0.799571         -0.580965          0.000000
O             -3.146699         -2.244954          0.000000
H             -3.980339         -1.724809          0.000000
H             -3.368374         -3.202224          0.000000

