%NProcShared=4 
%Mem=4GB  
%Chk=H2O_H2O_2865.chk 

#p CCSD(T)/cc-pVTZ 

H2O_H2O_2865

0 1
O             -0.000000         -0.009833          0.000000
H             -0.799571         -0.580965          0.000000
H              0.799571         -0.580965          0.000000
O             -3.519055         -2.513276          0.000000
H             -4.438152         -2.165761          0.000000
H             -3.549716         -3.495399          0.000000

