%NProcShared=4 
%Mem=4GB  
%Chk=H2O_H2O_2413.chk 

#p CCSD(T)/cc-pVTZ 

H2O_H2O_2413

0 1
O             -0.000000         -0.009833          0.000000
H             -0.799571         -0.580965          0.000000
H              0.799571         -0.580965          0.000000
O             -3.226152         -2.305636          0.000000
H             -4.182746         -2.081060          0.000000
H             -3.128358         -3.283359          0.000000

