%NProcShared=4 
%Mem=4GB  
%Chk=H2O_H2O_4532.chk 

#p CCSD(T)/cc-pVTZ 

H2O_H2O_4532

0 1
O             -0.000000         -0.009833          0.000000
H             -0.799571         -0.580965          0.000000
H              0.799571         -0.580965          0.000000
O             -4.602565         -3.293314          0.000000
H             -5.572284         -3.451905          0.000000
H             -4.138056         -4.159188          0.000000

