%NProcShared=4 
%Mem=4GB  
%Chk=H2O_H2O_4556.chk 

#p CCSD(T)/cc-pVTZ 

H2O_H2O_4556

0 1
O             -0.000000         -0.009833          0.000000
H             -0.799571         -0.580965          0.000000
H              0.799571         -0.580965          0.000000
O             -4.618208         -3.305172          0.000000
H             -5.575478         -3.526846          0.000000
H             -4.098063         -4.138811          0.000000

