%NProcShared=4 
%Mem=4GB  
%Chk=H2O_H2O_4456.chk 

#p CCSD(T)/cc-pVTZ 

H2O_H2O_4456

0 1
O             -0.000000         -0.009833          0.000000
H             -0.799571         -0.580965          0.000000
H              0.799571         -0.580965          0.000000
O             -4.553292         -3.258803          0.000000
H             -5.510562         -3.480477          0.000000
H             -4.033147         -4.092443          0.000000

