%NProcShared=4 
%Mem=4GB  
%Chk=H2O_H2O_1851.chk 

#p CCSD(T)/cc-pVTZ 

H2O_H2O_1851

0 1
O             -0.000000         -0.009833          0.000000
H             -0.799571         -0.580965          0.000000
H              0.799571         -0.580965          0.000000
O             -2.862367         -2.053935          0.000000
H             -3.697580         -2.571549          0.000000
H             -2.101861         -2.676138          0.000000

