%NProcShared=4 
%Mem=4GB  
%Chk=H2O_H2O_1991.chk 

#p CCSD(T)/cc-pVTZ 

H2O_H2O_1991

0 1
O             -0.000000         -0.009833          0.000000
H             -0.799571         -0.580965          0.000000
H              0.799571         -0.580965          0.000000
O             -2.951384         -2.107000          0.000000
H             -3.845784         -1.700117          0.000000
H             -3.046213         -3.085015          0.000000

