%NProcShared=4 
%Mem=4GB  
%Chk=H2O_H2O_134.chk 

#p CCSD(T)/cc-pVTZ 

H2O_H2O_134

0 1
O             -0.000000         -0.009833          0.000000
H             -0.799571         -0.580965          0.000000
H              0.799571         -0.580965          0.000000
O             -1.747392         -1.252432          0.000000
H             -2.729516         -1.283093          0.000000
H             -1.399877         -2.171529          0.000000

