%NProcShared=4 
%Mem=4GB  
%Chk=H2O_H2O_3108.chk 

#p CCSD(T)/cc-pVTZ 

H2O_H2O_3108

0 1
O             -0.000000         -0.009833          0.000000
H             -0.799571         -0.580965          0.000000
H              0.799571         -0.580965          0.000000
O             -3.678085         -2.632251          0.000000
H             -4.656100         -2.727081          0.000000
H             -3.271202         -3.526652          0.000000

