%NProcShared=4 
%Mem=4GB  
%Chk=H2O_H2O_4895.chk 

#p CCSD(T)/cc-pVTZ 

H2O_H2O_4895

0 1
O             -0.000000         -0.009833          0.000000
H             -0.799571         -0.580965          0.000000
H              0.799571         -0.580965          0.000000
O             -4.834918         -3.449332          0.000000
H             -5.593534         -2.824825          0.000000
H             -5.179645         -4.369478          0.000000

