%NProcShared=4 
%Mem=4GB  
%Chk=H2O_H2O_4161.chk 

#p CCSD(T)/cc-pVTZ 

H2O_H2O_4161

0 1
O             -0.000000         -0.009833          0.000000
H             -0.799571         -0.580965          0.000000
H              0.799571         -0.580965          0.000000
O             -4.361265         -3.118004          0.000000
H             -5.338989         -3.020209          0.000000
H             -4.136689         -4.074598          0.000000

