%NProcShared=4 
%Mem=4GB  
%Chk=H2O_H2O_4014.chk 

#p CCSD(T)/cc-pVTZ 

H2O_H2O_4014

0 1
O             -0.000000         -0.009833          0.000000
H             -0.799571         -0.580965          0.000000
H              0.799571         -0.580965          0.000000
O             -4.265210         -3.047043          0.000000
H             -5.205068         -2.760384          0.000000
H             -4.231571         -4.029069          0.000000

