%NProcShared=4 
%Mem=4GB  
%Chk=H2O_H2O_499.chk 

#p CCSD(T)/cc-pVTZ 

H2O_H2O_499

0 1
O             -0.000000         -0.009833          0.000000
H             -0.799571         -0.580965          0.000000
H              0.799571         -0.580965          0.000000
O             -1.978967         -1.406548          0.000000
H             -2.550099         -0.606976          0.000000
H             -2.550099         -2.206119          0.000000

