%NProcShared=4 
%Mem=4GB  
%Chk=H2O_H2O_4776.chk 

#p CCSD(T)/cc-pVTZ 

H2O_H2O_4776

0 1
O             -0.000000         -0.009833          0.000000
H             -0.799571         -0.580965          0.000000
H              0.799571         -0.580965          0.000000
O             -4.761148         -3.410229          0.000000
H             -5.596361         -3.927844          0.000000
H             -4.000642         -4.032433          0.000000

