%NProcShared=4 
%Mem=4GB  
%Chk=H2O_H2O_2300.chk 

#p CCSD(T)/cc-pVTZ 

H2O_H2O_2300

0 1
O             -0.000000         -0.009833          0.000000
H             -0.799571         -0.580965          0.000000
H              0.799571         -0.580965          0.000000
O             -3.153844         -2.262616          0.000000
H             -3.953415         -2.833748          0.000000
H             -2.354272         -2.833748          0.000000

