%NProcShared=4 
%Mem=4GB  
%Chk=H2O_H2O_4530.chk 

#p CCSD(T)/cc-pVTZ 

H2O_H2O_4530

0 1
O             -0.000000         -0.009833          0.000000
H             -0.799571         -0.580965          0.000000
H              0.799571         -0.580965          0.000000
O             -4.601376         -3.293806          0.000000
H             -5.542099         -3.577614          0.000000
H             -4.027823         -4.091642          0.000000

