%NProcShared=4 
%Mem=4GB  
%Chk=H2O_H2O_4230.chk 

#p CCSD(T)/cc-pVTZ 

H2O_H2O_4230

0 1
O             -0.000000         -0.009833          0.000000
H             -0.799571         -0.580965          0.000000
H              0.799571         -0.580965          0.000000
O             -4.406630         -3.154699          0.000000
H             -5.347352         -3.438507          0.000000
H             -3.833076         -3.952535          0.000000

