%NProcShared=4 
%Mem=4GB  
%Chk=H2O_H2O_4204.chk 

#p CCSD(T)/cc-pVTZ 

H2O_H2O_4204

0 1
O             -0.000000         -0.009833          0.000000
H             -0.799571         -0.580965          0.000000
H              0.799571         -0.580965          0.000000
O             -4.389785         -3.143293          0.000000
H             -5.309931         -3.488020          0.000000
H             -3.765278         -3.901909          0.000000

