%NProcShared=4 
%Mem=4GB  
%Chk=H2O_H2O_1352.chk 

#p CCSD(T)/cc-pVTZ 

H2O_H2O_1352

0 1
O             -0.000000         -0.009833          0.000000
H             -0.799571         -0.580965          0.000000
H              0.799571         -0.580965          0.000000
O             -2.538429         -1.822026          0.000000
H             -3.405707         -2.283907          0.000000
H             -1.820246         -2.492637          0.000000

