%NProcShared=4 
%Mem=4GB  
%Chk=H2O_H2O_2262.chk 

#p CCSD(T)/cc-pVTZ 

H2O_H2O_2262

0 1
O             -0.000000         -0.009833          0.000000
H             -0.799571         -0.580965          0.000000
H              0.799571         -0.580965          0.000000
O             -3.128339         -2.236552          0.000000
H             -4.097573         -2.075021          0.000000
H             -2.966808         -3.205785          0.000000

