%NProcShared=4 
%Mem=4GB  
%Chk=H2O_H2O_4264.chk 

#p CCSD(T)/cc-pVTZ 

H2O_H2O_4264

0 1
O             -0.000000         -0.009833          0.000000
H             -0.799571         -0.580965          0.000000
H              0.799571         -0.580965          0.000000
O             -4.427499         -3.162966          0.000000
H             -5.367357         -2.876306          0.000000
H             -4.393860         -4.144992          0.000000

