%NProcShared=4 
%Mem=4GB  
%Chk=H2O_H2O_3681.chk 

#p CCSD(T)/cc-pVTZ 

H2O_H2O_3681

0 1
O             -0.000000         -0.009833          0.000000
H             -0.799571         -0.580965          0.000000
H              0.799571         -0.580965          0.000000
O             -4.050196         -2.899442          0.000000
H             -5.007466         -3.121117          0.000000
H             -3.530051         -3.733082          0.000000

