%NProcShared=4 
%Mem=4GB  
%Chk=H2O_H2O_3784.chk 

#p CCSD(T)/cc-pVTZ 

H2O_H2O_3784

0 1
O             -0.000000         -0.009833          0.000000
H             -0.799571         -0.580965          0.000000
H              0.799571         -0.580965          0.000000
O             -4.116812         -2.944903          0.000000
H             -5.098935         -2.975563          0.000000
H             -3.769296         -3.864000          0.000000

