%NProcShared=4 
%Mem=4GB  
%Chk=H2O_H2O_4881.chk 

#p CCSD(T)/cc-pVTZ 

H2O_H2O_4881

0 1
O             -0.000000         -0.009833          0.000000
H             -0.799571         -0.580965          0.000000
H              0.799571         -0.580965          0.000000
O             -4.829183         -3.455871          0.000000
H             -5.786454         -3.677546          0.000000
H             -4.309038         -4.289511          0.000000

