%NProcShared=4 
%Mem=4GB  
%Chk=H2O_H2O_3092.chk 

#p CCSD(T)/cc-pVTZ 

H2O_H2O_3092

0 1
O             -0.000000         -0.009833          0.000000
H             -0.799571         -0.580965          0.000000
H              0.799571         -0.580965          0.000000
O             -3.665759         -2.616492          0.000000
H             -4.531633         -2.151984          0.000000
H             -3.824350         -3.586211          0.000000

