%NProcShared=4 
%Mem=4GB  
%Chk=H2O_H2O_3126.chk 

#p CCSD(T)/cc-pVTZ 

H2O_H2O_3126

0 1
O             -0.000000         -0.009833          0.000000
H             -0.799571         -0.580965          0.000000
H              0.799571         -0.580965          0.000000
O             -3.690040         -2.645140          0.000000
H             -4.525254         -3.162755          0.000000
H             -2.929535         -3.267344          0.000000

