%NProcShared=4 
%Mem=4GB  
%Chk=H2O_H2O_4385.chk 

#p CCSD(T)/cc-pVTZ 

H2O_H2O_4385

0 1
O             -0.000000         -0.009833          0.000000
H             -0.799571         -0.580965          0.000000
H              0.799571         -0.580965          0.000000
O             -4.506828         -3.222742          0.000000
H             -5.488854         -3.189104          0.000000
H             -4.220169         -4.162600          0.000000

