%NProcShared=4 
%Mem=4GB  
%Chk=H2O_H2O_4417.chk 

#p CCSD(T)/cc-pVTZ 

H2O_H2O_4417

0 1
O             -0.000000         -0.009833          0.000000
H             -0.799571         -0.580965          0.000000
H              0.799571         -0.580965          0.000000
O             -4.525890         -3.230882          0.000000
H             -5.391764         -2.766374          0.000000
H             -4.684481         -4.200601          0.000000

