%NProcShared=4 
%Mem=4GB  
%Chk=H2O_H2O_2773.chk 

#p CCSD(T)/cc-pVTZ 

H2O_H2O_2773

0 1
O             -0.000000         -0.009833          0.000000
H             -0.799571         -0.580965          0.000000
H              0.799571         -0.580965          0.000000
O             -3.455776         -2.462087          0.000000
H             -4.077979         -1.701581          0.000000
H             -3.973391         -3.297300          0.000000

