%NProcShared=4 
%Mem=4GB  
%Chk=H2O_H2O_4063.chk 

#p CCSD(T)/cc-pVTZ 

H2O_H2O_4063

0 1
O             -0.000000         -0.009833          0.000000
H             -0.799571         -0.580965          0.000000
H              0.799571         -0.580965          0.000000
O             -4.297260         -3.070725          0.000000
H             -5.253853         -2.846149          0.000000
H             -4.199465         -4.048448          0.000000

