%NProcShared=4 
%Mem=4GB  
%Chk=H2O_H2O_1944.chk 

#p CCSD(T)/cc-pVTZ 

H2O_H2O_1944

0 1
O             -0.000000         -0.009833          0.000000
H             -0.799571         -0.580965          0.000000
H              0.799571         -0.580965          0.000000
O             -2.919721         -2.082060          0.000000
H             -3.717557         -1.508506          0.000000
H             -3.203530         -3.022783          0.000000

