%NProcShared=4 
%Mem=4GB  
%Chk=H2O_H2O_4850.chk 

#p CCSD(T)/cc-pVTZ 

H2O_H2O_4850

0 1
O             -0.000000         -0.009833          0.000000
H             -0.799571         -0.580965          0.000000
H              0.799571         -0.580965          0.000000
O             -4.809191         -3.445027          0.000000
H             -5.608763         -4.016159          0.000000
H             -4.009620         -4.016159          0.000000

