%NProcShared=4 
%Mem=4GB  
%Chk=H2O_H2O_2091.chk 

#p CCSD(T)/cc-pVTZ 

H2O_H2O_2091

0 1
O             -0.000000         -0.009833          0.000000
H             -0.799571         -0.580965          0.000000
H              0.799571         -0.580965          0.000000
O             -3.016299         -2.153369          0.000000
H             -3.910700         -1.746486          0.000000
H             -3.111128         -3.131385          0.000000

