%NProcShared=4 
%Mem=4GB  
%Chk=H2O_H2O_3145.chk 

#p CCSD(T)/cc-pVTZ 

H2O_H2O_3145

0 1
O             -0.000000         -0.009833          0.000000
H             -0.799571         -0.580965          0.000000
H              0.799571         -0.580965          0.000000
O             -3.698895         -2.637873          0.000000
H             -4.457511         -2.013366          0.000000
H             -4.043622         -3.558020          0.000000

