%NProcShared=4 
%Mem=4GB  
%Chk=H2O_H2O_1444.chk 

#p CCSD(T)/cc-pVTZ 

H2O_H2O_1444

0 1
O             -0.000000         -0.009833          0.000000
H             -0.799571         -0.580965          0.000000
H              0.799571         -0.580965          0.000000
O             -2.595144         -1.850215          0.000000
H             -3.392979         -1.276661          0.000000
H             -2.878952         -2.790937          0.000000

