%NProcShared=4 
%Mem=4GB  
%Chk=H2O_H2O_1933.chk 

#p CCSD(T)/cc-pVTZ 

H2O_H2O_1933

0 1
O             -0.000000         -0.009833          0.000000
H             -0.799571         -0.580965          0.000000
H              0.799571         -0.580965          0.000000
O             -2.915327         -2.087415          0.000000
H             -3.893342         -2.182244          0.000000
H             -2.508444         -2.981816          0.000000

