%NProcShared=4 
%Mem=4GB  
%Chk=H2O_H2O_3404.chk 

#p CCSD(T)/cc-pVTZ 

H2O_H2O_3404

0 1
O             -0.000000         -0.009833          0.000000
H             -0.799571         -0.580965          0.000000
H              0.799571         -0.580965          0.000000
O             -3.870460         -2.772341          0.000000
H             -4.790607         -3.117068          0.000000
H             -3.245953         -3.530956          0.000000

