%NProcShared=4 
%Mem=4GB  
%Chk=H2O_H2O_3237.chk 

#p CCSD(T)/cc-pVTZ 

H2O_H2O_3237

0 1
O             -0.000000         -0.009833          0.000000
H             -0.799571         -0.580965          0.000000
H              0.799571         -0.580965          0.000000
O             -3.761266         -2.688650          0.000000
H             -4.730500         -2.527119          0.000000
H             -3.599735         -3.657884          0.000000

