%NProcShared=4 
%Mem=4GB  
%Chk=H2O_H2O_1170.chk 

#p CCSD(T)/cc-pVTZ 

H2O_H2O_1170

0 1
O             -0.000000         -0.009833          0.000000
H             -0.799571         -0.580965          0.000000
H              0.799571         -0.580965          0.000000
O             -2.416812         -1.722084          0.000000
H             -3.175428         -1.097577          0.000000
H             -2.761539         -2.642231          0.000000

