%NProcShared=4 
%Mem=4GB  
%Chk=H2O_H2O_4503.chk 

#p CCSD(T)/cc-pVTZ 

H2O_H2O_4503

0 1
O             -0.000000         -0.009833          0.000000
H             -0.799571         -0.580965          0.000000
H              0.799571         -0.580965          0.000000
O             -4.583905         -3.282547          0.000000
H             -5.479535         -3.686716          0.000000
H             -3.911120         -3.998693          0.000000

