%NProcShared=4 
%Mem=4GB  
%Chk=H2O_H2O_2140.chk 

#p CCSD(T)/cc-pVTZ 

H2O_H2O_2140

0 1
O             -0.000000         -0.009833          0.000000
H             -0.799571         -0.580965          0.000000
H              0.799571         -0.580965          0.000000
O             -3.048417         -2.177100          0.000000
H             -3.967514         -1.829585          0.000000
H             -3.079078         -3.159224          0.000000

