%NProcShared=4 
%Mem=4GB  
%Chk=H2O_H2O_1454.chk 

#p CCSD(T)/cc-pVTZ 

H2O_H2O_1454

0 1
O             -0.000000         -0.009833          0.000000
H             -0.799571         -0.580965          0.000000
H              0.799571         -0.580965          0.000000
O             -2.604606         -1.868144          0.000000
H             -3.524753         -2.212871          0.000000
H             -1.980099         -2.626760          0.000000

