%NProcShared=4 
%Mem=4GB  
%Chk=H2O_H2O_2583.chk 

#p CCSD(T)/cc-pVTZ 

H2O_H2O_2583

0 1
O             -0.000000         -0.009833          0.000000
H             -0.799571         -0.580965          0.000000
H              0.799571         -0.580965          0.000000
O             -3.337278         -2.388814          0.000000
H             -4.315293         -2.483643          0.000000
H             -2.930395         -3.283214          0.000000

