%NProcShared=4 
%Mem=4GB  
%Chk=H2O_H2O_3656.chk 

#p CCSD(T)/cc-pVTZ 

H2O_H2O_3656

0 1
O             -0.000000         -0.009833          0.000000
H             -0.799571         -0.580965          0.000000
H              0.799571         -0.580965          0.000000
O             -4.033967         -2.887850          0.000000
H             -4.991238         -3.109525          0.000000
H             -3.513822         -3.721490          0.000000

