%NProcShared=4 
%Mem=4GB  
%Chk=H2O_H2O_1966.chk 

#p CCSD(T)/cc-pVTZ 

H2O_H2O_1966

0 1
O             -0.000000         -0.009833          0.000000
H             -0.799571         -0.580965          0.000000
H              0.799571         -0.580965          0.000000
O             -2.935155         -2.095408          0.000000
H             -3.829555         -1.688525          0.000000
H             -3.029984         -3.073423          0.000000

