%NProcShared=4 
%Mem=4GB  
%Chk=H2O_H2O_4736.chk 

#p CCSD(T)/cc-pVTZ 

H2O_H2O_4736

0 1
O             -0.000000         -0.009833          0.000000
H             -0.799571         -0.580965          0.000000
H              0.799571         -0.580965          0.000000
O             -4.734530         -3.384626          0.000000
H             -5.712253         -3.286832          0.000000
H             -4.509954         -4.341220          0.000000

