%NProcShared=4 
%Mem=4GB  
%Chk=H2O_H2O_4019.chk 

#p CCSD(T)/cc-pVTZ 

H2O_H2O_4019

0 1
O             -0.000000         -0.009833          0.000000
H             -0.799571         -0.580965          0.000000
H              0.799571         -0.580965          0.000000
O             -4.266720         -3.044218          0.000000
H             -5.064556         -2.470664          0.000000
H             -4.550528         -3.984941          0.000000

