%NProcShared=4 
%Mem=4GB  
%Chk=H2O_H2O_1423.chk 

#p CCSD(T)/cc-pVTZ 

H2O_H2O_1423

0 1
O             -0.000000         -0.009833          0.000000
H             -0.799571         -0.580965          0.000000
H              0.799571         -0.580965          0.000000
O             -2.579415         -1.836105          0.000000
H             -3.201619         -1.075599          0.000000
H             -3.097030         -2.671318          0.000000

