%NProcShared=4 
%Mem=4GB  
%Chk=H2O_H2O_4269.chk 

#p CCSD(T)/cc-pVTZ 

H2O_H2O_4269

0 1
O             -0.000000         -0.009833          0.000000
H             -0.799571         -0.580965          0.000000
H              0.799571         -0.580965          0.000000
O             -4.429009         -3.160141          0.000000
H             -5.226845         -2.586587          0.000000
H             -4.712817         -4.100863          0.000000

