%NProcShared=4 
%Mem=4GB  
%Chk=H2O_H2O_485.chk 

#p CCSD(T)/cc-pVTZ 

H2O_H2O_485

0 1
O             -0.000000         -0.009833          0.000000
H             -0.799571         -0.580965          0.000000
H              0.799571         -0.580965          0.000000
O             -1.975120         -1.414349          0.000000
H             -2.957146         -1.380710          0.000000
H             -1.688461         -2.354207          0.000000

