%NProcShared=4 
%Mem=4GB  
%Chk=H2O_H2O_726.chk 

#p CCSD(T)/cc-pVTZ 

H2O_H2O_726

0 1
O             -0.000000         -0.009833          0.000000
H             -0.799571         -0.580965          0.000000
H              0.799571         -0.580965          0.000000
O             -2.132066         -1.532283          0.000000
H             -2.967279         -2.049897          0.000000
H             -1.371561         -2.154486          0.000000

