%NProcShared=4 
%Mem=4GB  
%Chk=H2O_H2O_1187.chk 

#p CCSD(T)/cc-pVTZ 

H2O_H2O_1187

0 1
O             -0.000000         -0.009833          0.000000
H             -0.799571         -0.580965          0.000000
H              0.799571         -0.580965          0.000000
O             -2.430496         -1.738084          0.000000
H             -3.399730         -1.576553          0.000000
H             -2.268965         -2.707318          0.000000

