%NProcShared=4 
%Mem=4GB  
%Chk=H2O_H2O_4479.chk 

#p CCSD(T)/cc-pVTZ 

H2O_H2O_4479

0 1
O             -0.000000         -0.009833          0.000000
H             -0.799571         -0.580965          0.000000
H              0.799571         -0.580965          0.000000
O             -4.568303         -3.270808          0.000000
H             -5.488449         -3.615535          0.000000
H             -3.943796         -4.029424          0.000000

