%NProcShared=4 
%Mem=4GB  
%Chk=H2O_H2O_4867.chk 

#p CCSD(T)/cc-pVTZ 

H2O_H2O_4867

0 1
O             -0.000000         -0.009833          0.000000
H             -0.799571         -0.580965          0.000000
H              0.799571         -0.580965          0.000000
O             -4.818011         -3.439543          0.000000
H             -5.683885         -2.975035          0.000000
H             -4.976602         -4.409262          0.000000

