%NProcShared=4 
%Mem=4GB  
%Chk=H2O_H2O_4773.chk 

#p CCSD(T)/cc-pVTZ 

H2O_H2O_4773

0 1
O             -0.000000         -0.009833          0.000000
H             -0.799571         -0.580965          0.000000
H              0.799571         -0.580965          0.000000
O             -4.754088         -3.389468          0.000000
H             -5.376291         -2.628962          0.000000
H             -5.271702         -4.224681          0.000000

