%NProcShared=4 
%Mem=4GB  
%Chk=H2O_H2O_1339.chk 

#p CCSD(T)/cc-pVTZ 

H2O_H2O_1339

0 1
O             -0.000000         -0.009833          0.000000
H             -0.799571         -0.580965          0.000000
H              0.799571         -0.580965          0.000000
O             -2.528718         -1.806671          0.000000
H             -3.468575         -1.520011          0.000000
H             -2.495079         -2.788697          0.000000

