%NProcShared=4 
%Mem=4GB  
%Chk=H2O_H2O_926.chk 

#p CCSD(T)/cc-pVTZ 

H2O_H2O_926

0 1
O             -0.000000         -0.009833          0.000000
H             -0.799571         -0.580965          0.000000
H              0.799571         -0.580965          0.000000
O             -2.261897         -1.625021          0.000000
H             -3.097110         -2.142635          0.000000
H             -1.501392         -2.247224          0.000000

