%NProcShared=4 
%Mem=4GB  
%Chk=H2O_H2O_844.chk 

#p CCSD(T)/cc-pVTZ 

H2O_H2O_844

0 1
O             -0.000000         -0.009833          0.000000
H             -0.799571         -0.580965          0.000000
H              0.799571         -0.580965          0.000000
O             -2.205650         -1.572000          0.000000
H             -3.003486         -0.998446          0.000000
H             -2.489458         -2.512723          0.000000

