%NProcShared=4 
%Mem=4GB  
%Chk=H2O_H2O_2101.chk 

#p CCSD(T)/cc-pVTZ 

H2O_H2O_2101

0 1
O             -0.000000         -0.009833          0.000000
H             -0.799571         -0.580965          0.000000
H              0.799571         -0.580965          0.000000
O             -3.024656         -2.169857          0.000000
H             -3.859869         -2.687472          0.000000
H             -2.264150         -2.792061          0.000000

