%NProcShared=4 
%Mem=4GB  
%Chk=H2O_H2O_702.chk 

#p CCSD(T)/cc-pVTZ 

H2O_H2O_702

0 1
O             -0.000000         -0.009833          0.000000
H             -0.799571         -0.580965          0.000000
H              0.799571         -0.580965          0.000000
O             -2.116478         -1.520627          0.000000
H             -2.983756         -1.982508          0.000000
H             -1.398294         -2.191238          0.000000

