%NProcShared=4 
%Mem=4GB  
%Chk=H2O_H2O_1433.chk 

#p CCSD(T)/cc-pVTZ 

H2O_H2O_1433

0 1
O             -0.000000         -0.009833          0.000000
H             -0.799571         -0.580965          0.000000
H              0.799571         -0.580965          0.000000
O             -2.590749         -1.855570          0.000000
H             -3.568764         -1.950399          0.000000
H             -2.183866         -2.749970          0.000000

