%NProcShared=4 
%Mem=4GB  
%Chk=H2O_H2O_3602.chk 

#p CCSD(T)/cc-pVTZ 

H2O_H2O_3602

0 1
O             -0.000000         -0.009833          0.000000
H             -0.799571         -0.580965          0.000000
H              0.799571         -0.580965          0.000000
O             -3.999030         -2.865330          0.000000
H             -4.866308         -3.327211          0.000000
H             -3.280846         -3.535941          0.000000

