%NProcShared=4 
%Mem=4GB  
%Chk=H2O_H2O_431.chk 

#p CCSD(T)/cc-pVTZ 

H2O_H2O_431

0 1
O             -0.000000         -0.009833          0.000000
H             -0.799571         -0.580965          0.000000
H              0.799571         -0.580965          0.000000
O             -1.940439         -1.392448          0.000000
H             -2.897710         -1.614122          0.000000
H             -1.420294         -2.226088          0.000000

