%NProcShared=4 
%Mem=4GB  
%Chk=H2O_H2O_4862.chk 

#p CCSD(T)/cc-pVTZ 

H2O_H2O_4862

0 1
O             -0.000000         -0.009833          0.000000
H             -0.799571         -0.580965          0.000000
H              0.799571         -0.580965          0.000000
O             -4.816145         -3.442147          0.000000
H             -5.785378         -3.280616          0.000000
H             -4.654613         -4.411381          0.000000

