%NProcShared=4 
%Mem=4GB  
%Chk=H2O_H2O_1650.chk 

#p CCSD(T)/cc-pVTZ 

H2O_H2O_1650

0 1
O             -0.000000         -0.009833          0.000000
H             -0.799571         -0.580965          0.000000
H              0.799571         -0.580965          0.000000
O             -2.731892         -1.961217          0.000000
H             -3.531464         -2.532349          0.000000
H             -1.932321         -2.532349          0.000000

