%NProcShared=4 
%Mem=4GB  
%Chk=H2O_H2O_2833.chk 

#p CCSD(T)/cc-pVTZ 

H2O_H2O_2833

0 1
O             -0.000000         -0.009833          0.000000
H             -0.799571         -0.580965          0.000000
H              0.799571         -0.580965          0.000000
O             -3.499567         -2.504737          0.000000
H             -4.477582         -2.599566          0.000000
H             -3.092684         -3.399137          0.000000

