%NProcShared=4 
%Mem=4GB  
%Chk=H2O_H2O_4376.chk 

#p CCSD(T)/cc-pVTZ 

H2O_H2O_4376

0 1
O             -0.000000         -0.009833          0.000000
H             -0.799571         -0.580965          0.000000
H              0.799571         -0.580965          0.000000
O             -4.501485         -3.224753          0.000000
H             -5.336698         -3.742368          0.000000
H             -3.740979         -3.846957          0.000000

