%NProcShared=4 
%Mem=4GB  
%Chk=H2O_H2O_2618.chk 

#p CCSD(T)/cc-pVTZ 

H2O_H2O_2618

0 1
O             -0.000000         -0.009833          0.000000
H             -0.799571         -0.580965          0.000000
H              0.799571         -0.580965          0.000000
O             -3.357675         -2.395653          0.000000
H             -4.191315         -1.875508          0.000000
H             -3.579349         -3.352924          0.000000

