%NProcShared=4 
%Mem=4GB  
%Chk=H2O_H2O_3146.chk 

#p CCSD(T)/cc-pVTZ 

H2O_H2O_3146

0 1
O             -0.000000         -0.009833          0.000000
H             -0.799571         -0.580965          0.000000
H              0.799571         -0.580965          0.000000
O             -3.699042         -2.637246          0.000000
H             -4.415188         -1.964461          0.000000
H             -4.103211         -3.532877          0.000000

