%NProcShared=4 
%Mem=4GB  
%Chk=H2O_H2O_2612.chk 

#p CCSD(T)/cc-pVTZ 

H2O_H2O_2612

0 1
O             -0.000000         -0.009833          0.000000
H             -0.799571         -0.580965          0.000000
H              0.799571         -0.580965          0.000000
O             -3.355543         -2.398843          0.000000
H             -4.324777         -2.237312          0.000000
H             -3.194012         -3.368077          0.000000

