%NProcShared=4 
%Mem=4GB  
%Chk=H2O_H2O_4081.chk 

#p CCSD(T)/cc-pVTZ 

H2O_H2O_4081

0 1
O             -0.000000         -0.009833          0.000000
H             -0.799571         -0.580965          0.000000
H              0.799571         -0.580965          0.000000
O             -4.309858         -3.084919          0.000000
H             -5.267129         -3.306593          0.000000
H             -3.789713         -3.918558          0.000000

