%NProcShared=4 
%Mem=4GB  
%Chk=H2O_H2O_3012.chk 

#p CCSD(T)/cc-pVTZ 

H2O_H2O_3012

0 1
O             -0.000000         -0.009833          0.000000
H             -0.799571         -0.580965          0.000000
H              0.799571         -0.580965          0.000000
O             -3.615206         -2.584320          0.000000
H             -4.584440         -2.422788          0.000000
H             -3.453675         -3.553553          0.000000

