%NProcShared=4 
%Mem=4GB  
%Chk=H2O_H2O_444.chk 

#p CCSD(T)/cc-pVTZ 

H2O_H2O_444

0 1
O             -0.000000         -0.009833          0.000000
H             -0.799571         -0.580965          0.000000
H              0.799571         -0.580965          0.000000
O             -1.945988         -1.386524          0.000000
H             -2.743823         -0.812970          0.000000
H             -2.229796         -2.327247          0.000000

