%NProcShared=4 
%Mem=4GB  
%Chk=H2O_H2O_1952.chk 

#p CCSD(T)/cc-pVTZ 

H2O_H2O_1952

0 1
O             -0.000000         -0.009833          0.000000
H             -0.799571         -0.580965          0.000000
H              0.799571         -0.580965          0.000000
O             -2.927922         -2.100241          0.000000
H             -3.795201         -2.562121          0.000000
H             -2.209739         -2.770851          0.000000

