%NProcShared=4 
%Mem=4GB  
%Chk=H2O_H2O_1105.chk 

#p CCSD(T)/cc-pVTZ 

H2O_H2O_1105

0 1
O             -0.000000         -0.009833          0.000000
H             -0.799571         -0.580965          0.000000
H              0.799571         -0.580965          0.000000
O             -2.378017         -1.705666          0.000000
H             -3.318740         -1.989474          0.000000
H             -1.804463         -2.503502          0.000000

