%NProcShared=4 
%Mem=4GB  
%Chk=H2O_H2O_4743.chk 

#p CCSD(T)/cc-pVTZ 

H2O_H2O_4743

0 1
O             -0.000000         -0.009833          0.000000
H             -0.799571         -0.580965          0.000000
H              0.799571         -0.580965          0.000000
O             -4.737131         -3.380996          0.000000
H             -5.570771         -2.860851          0.000000
H             -4.958806         -4.338266          0.000000

