%NProcShared=4 
%Mem=4GB  
%Chk=H2O_H2O_2648.chk 

#p CCSD(T)/cc-pVTZ 

H2O_H2O_2648

0 1
O             -0.000000         -0.009833          0.000000
H             -0.799571         -0.580965          0.000000
H              0.799571         -0.580965          0.000000
O             -3.374631         -2.404126          0.000000
H             -3.996835         -1.643620          0.000000
H             -3.892246         -3.239339          0.000000

