%NProcShared=4 
%Mem=4GB  
%Chk=H2O_H2O_3945.chk 

#p CCSD(T)/cc-pVTZ 

H2O_H2O_3945

0 1
O             -0.000000         -0.009833          0.000000
H             -0.799571         -0.580965          0.000000
H              0.799571         -0.580965          0.000000
O             -4.218220         -3.008825          0.000000
H             -4.976836         -2.384319          0.000000
H             -4.562947         -3.928972          0.000000

