%NProcShared=4 
%Mem=4GB  
%Chk=H2O_H2O_4405.chk 

#p CCSD(T)/cc-pVTZ 

H2O_H2O_4405

0 1
O             -0.000000         -0.009833          0.000000
H             -0.799571         -0.580965          0.000000
H              0.799571         -0.580965          0.000000
O             -4.520232         -3.235845          0.000000
H             -5.460954         -3.519653          0.000000
H             -3.946678         -4.033680          0.000000

