%NProcShared=4 
%Mem=4GB  
%Chk=H2O_H2O_4001.chk 

#p CCSD(T)/cc-pVTZ 

H2O_H2O_4001

0 1
O             -0.000000         -0.009833          0.000000
H             -0.799571         -0.580965          0.000000
H              0.799571         -0.580965          0.000000
O             -4.258052         -3.050869          0.000000
H             -5.093265         -3.568484          0.000000
H             -3.497546         -3.673073          0.000000

