%NProcShared=4 
%Mem=4GB  
%Chk=H2O_H2O_914.chk 

#p CCSD(T)/cc-pVTZ 

H2O_H2O_914

0 1
O             -0.000000         -0.009833          0.000000
H             -0.799571         -0.580965          0.000000
H              0.799571         -0.580965          0.000000
O             -2.252827         -1.609602          0.000000
H             -3.192684         -1.322943          0.000000
H             -2.219188         -2.591628          0.000000

