%NProcShared=4 
%Mem=4GB  
%Chk=H2O_H2O_3399.chk 

#p CCSD(T)/cc-pVTZ 

H2O_H2O_3399

0 1
O             -0.000000         -0.009833          0.000000
H             -0.799571         -0.580965          0.000000
H              0.799571         -0.580965          0.000000
O             -3.861519         -2.751251          0.000000
H             -4.432651         -1.951679          0.000000
H             -4.432651         -3.550822          0.000000

