%NProcShared=4 
%Mem=4GB  
%Chk=H2O_H2O_3823.chk 

#p CCSD(T)/cc-pVTZ 

H2O_H2O_3823

0 1
O             -0.000000         -0.009833          0.000000
H             -0.799571         -0.580965          0.000000
H              0.799571         -0.580965          0.000000
O             -4.137390         -2.948962          0.000000
H             -4.759593         -2.188457          0.000000
H             -4.655004         -3.784175          0.000000

