%NProcShared=4 
%Mem=4GB  
%Chk=H2O_H2O_4115.chk 

#p CCSD(T)/cc-pVTZ 

H2O_H2O_4115

0 1
O             -0.000000         -0.009833          0.000000
H             -0.799571         -0.580965          0.000000
H              0.799571         -0.580965          0.000000
O             -4.330500         -3.092889          0.000000
H             -5.249597         -2.745374          0.000000
H             -4.361161         -4.075013          0.000000

