%NProcShared=4 
%Mem=4GB  
%Chk=H2O_H2O_340.chk 

#p CCSD(T)/cc-pVTZ 

H2O_H2O_340

0 1
O             -0.000000         -0.009833          0.000000
H             -0.799571         -0.580965          0.000000
H              0.799571         -0.580965          0.000000
O             -1.879937         -1.342457          0.000000
H             -2.799034         -0.994942          0.000000
H             -1.910597         -2.324580          0.000000

