%NProcShared=4 
%Mem=4GB  
%Chk=H2O_H2O_1994.chk 

#p CCSD(T)/cc-pVTZ 

H2O_H2O_1994

0 1
O             -0.000000         -0.009833          0.000000
H             -0.799571         -0.580965          0.000000
H              0.799571         -0.580965          0.000000
O             -2.952179         -2.105244          0.000000
H             -3.750015         -1.531691          0.000000
H             -3.235988         -3.045967          0.000000

