%NProcShared=4 
%Mem=4GB  
%Chk=H2O_H2O_1180.chk 

#p CCSD(T)/cc-pVTZ 

H2O_H2O_1180

0 1
O             -0.000000         -0.009833          0.000000
H             -0.799571         -0.580965          0.000000
H              0.799571         -0.580965          0.000000
O             -2.426704         -1.740443          0.000000
H             -3.367427         -2.024251          0.000000
H             -1.853150         -2.538278          0.000000

