%NProcShared=4 
%Mem=4GB  
%Chk=H2O_H2O_637.chk 

#p CCSD(T)/cc-pVTZ 

H2O_H2O_637

0 1
O             -0.000000         -0.009833          0.000000
H             -0.799571         -0.580965          0.000000
H              0.799571         -0.580965          0.000000
O             -2.073460         -1.483055          0.000000
H             -3.042694         -1.321523          0.000000
H             -1.911929         -2.452288          0.000000

