%NProcShared=4 
%Mem=4GB  
%Chk=H2O_H2O_2637.chk 

#p CCSD(T)/cc-pVTZ 

H2O_H2O_2637

0 1
O             -0.000000         -0.009833          0.000000
H             -0.799571         -0.580965          0.000000
H              0.799571         -0.580965          0.000000
O             -3.371772         -2.410436          0.000000
H             -4.341006         -2.248905          0.000000
H             -3.210241         -3.379669          0.000000

