%NProcShared=4 
%Mem=4GB  
%Chk=H2O_H2O_2029.chk 

#p CCSD(T)/cc-pVTZ 

H2O_H2O_2029

0 1
O             -0.000000         -0.009833          0.000000
H             -0.799571         -0.580965          0.000000
H              0.799571         -0.580965          0.000000
O             -2.977871         -2.134766          0.000000
H             -3.898017         -2.479493          0.000000
H             -2.353364         -2.893382          0.000000

