%NProcShared=4 
%Mem=4GB  
%Chk=H2O_H2O_4574.chk 

#p CCSD(T)/cc-pVTZ 

H2O_H2O_4574

0 1
O             -0.000000         -0.009833          0.000000
H             -0.799571         -0.580965          0.000000
H              0.799571         -0.580965          0.000000
O             -4.624278         -3.296087          0.000000
H             -5.195410         -2.496516          0.000000
H             -5.195410         -4.095658          0.000000

