%NProcShared=4 
%Mem=4GB  
%Chk=H2O_H2O_1248.chk 

#p CCSD(T)/cc-pVTZ 

H2O_H2O_1248

0 1
O             -0.000000         -0.009833          0.000000
H             -0.799571         -0.580965          0.000000
H              0.799571         -0.580965          0.000000
O             -2.465813         -1.754959          0.000000
H             -3.088017         -0.994453          0.000000
H             -2.983428         -2.590172          0.000000

