%NProcShared=4 
%Mem=4GB  
%Chk=H2O_H2O_3870.chk 

#p CCSD(T)/cc-pVTZ 

H2O_H2O_3870

0 1
O             -0.000000         -0.009833          0.000000
H             -0.799571         -0.580965          0.000000
H              0.799571         -0.580965          0.000000
O             -4.169533         -2.974049          0.000000
H             -4.928149         -2.349542          0.000000
H             -4.514260         -3.894195          0.000000

