%NProcShared=4 
%Mem=4GB  
%Chk=H2O_H2O_1931.chk 

#p CCSD(T)/cc-pVTZ 

H2O_H2O_1931

0 1
O             -0.000000         -0.009833          0.000000
H             -0.799571         -0.580965          0.000000
H              0.799571         -0.580965          0.000000
O             -2.914173         -2.087984          0.000000
H             -3.871443         -2.309658          0.000000
H             -2.394028         -2.921624          0.000000

