%NProcShared=4 
%Mem=4GB  
%Chk=H2O_H2O_3847.chk 

#p CCSD(T)/cc-pVTZ 

H2O_H2O_3847

0 1
O             -0.000000         -0.009833          0.000000
H             -0.799571         -0.580965          0.000000
H              0.799571         -0.580965          0.000000
O             -4.153556         -2.961195          0.000000
H             -4.824166         -2.243012          0.000000
H             -4.615436         -3.828474          0.000000

