%NProcShared=4 
%Mem=4GB  
%Chk=H2O_H2O_3909.chk 

#p CCSD(T)/cc-pVTZ 

H2O_H2O_3909

0 1
O             -0.000000         -0.009833          0.000000
H             -0.799571         -0.580965          0.000000
H              0.799571         -0.580965          0.000000
O             -4.197956         -3.002864          0.000000
H             -5.180079         -3.033525          0.000000
H             -3.850441         -3.921961          0.000000

