%NProcShared=4 
%Mem=4GB  
%Chk=H2O_H2O_2641.chk 

#p CCSD(T)/cc-pVTZ 

H2O_H2O_2641

0 1
O             -0.000000         -0.009833          0.000000
H             -0.799571         -0.580965          0.000000
H              0.799571         -0.580965          0.000000
O             -3.373335         -2.408399          0.000000
H             -4.267735         -2.001516          0.000000
H             -3.468164         -3.386414          0.000000

