%NProcShared=4 
%Mem=4GB  
%Chk=H2O_H2O_3888.chk 

#p CCSD(T)/cc-pVTZ 

H2O_H2O_3888

0 1
O             -0.000000         -0.009833          0.000000
H             -0.799571         -0.580965          0.000000
H              0.799571         -0.580965          0.000000
O             -4.183657         -2.989579          0.000000
H             -5.140251         -2.765003          0.000000
H             -4.085863         -3.967302          0.000000

