%NProcShared=4 
%Mem=4GB  
%Chk=H2O_H2O_4485.chk 

#p CCSD(T)/cc-pVTZ 

H2O_H2O_4485

0 1
O             -0.000000         -0.009833          0.000000
H             -0.799571         -0.580965          0.000000
H              0.799571         -0.580965          0.000000
O             -4.571744         -3.269111          0.000000
H             -5.553770         -3.235473          0.000000
H             -4.285084         -4.208969          0.000000

