%NProcShared=4 
%Mem=4GB  
%Chk=H2O_H2O_4552.chk 

#p CCSD(T)/cc-pVTZ 

H2O_H2O_4552

0 1
O             -0.000000         -0.009833          0.000000
H             -0.799571         -0.580965          0.000000
H              0.799571         -0.580965          0.000000
O             -4.615728         -3.305836          0.000000
H             -5.483007         -3.767717          0.000000
H             -3.897545         -3.976447          0.000000

