%NProcShared=4 
%Mem=4GB  
%Chk=H2O_H2O_3839.chk 

#p CCSD(T)/cc-pVTZ 

H2O_H2O_3839

0 1
O             -0.000000         -0.009833          0.000000
H             -0.799571         -0.580965          0.000000
H              0.799571         -0.580965          0.000000
O             -4.151608         -2.965897          0.000000
H             -5.091465         -2.679238          0.000000
H             -4.117969         -3.947923          0.000000

