%NProcShared=4 
%Mem=4GB  
%Chk=H2O_H2O_3868.chk 

#p CCSD(T)/cc-pVTZ 

H2O_H2O_3868

0 1
O             -0.000000         -0.009833          0.000000
H             -0.799571         -0.580965          0.000000
H              0.799571         -0.580965          0.000000
O             -4.169120         -2.975267          0.000000
H             -5.002760         -2.455122          0.000000
H             -4.390794         -3.932537          0.000000

