%NProcShared=4 
%Mem=4GB  
%Chk=H2O_H2O_1321.chk 

#p CCSD(T)/cc-pVTZ 

H2O_H2O_1321

0 1
O             -0.000000         -0.009833          0.000000
H             -0.799571         -0.580965          0.000000
H              0.799571         -0.580965          0.000000
O             -2.514332         -1.791011          0.000000
H             -3.230478         -1.118225          0.000000
H             -2.918501         -2.686641          0.000000

