%NProcShared=4 
%Mem=4GB  
%Chk=H2O_H2O_1193.chk 

#p CCSD(T)/cc-pVTZ 

H2O_H2O_1193

0 1
O             -0.000000         -0.009833          0.000000
H             -0.799571         -0.580965          0.000000
H              0.799571         -0.580965          0.000000
O             -2.432628         -1.734894          0.000000
H             -3.266268         -1.214749          0.000000
H             -2.654302         -2.692165          0.000000

