%NProcShared=4 
%Mem=4GB  
%Chk=H2O_H2O_3275.chk 

#p CCSD(T)/cc-pVTZ 

H2O_H2O_3275

0 1
O             -0.000000         -0.009833          0.000000
H             -0.799571         -0.580965          0.000000
H              0.799571         -0.580965          0.000000
O             -3.786771         -2.714715          0.000000
H             -4.586342         -3.285847          0.000000
H             -2.987199         -3.285847          0.000000

