%NProcShared=4 
%Mem=4GB  
%Chk=H2O_H2O_2771.chk 

#p CCSD(T)/cc-pVTZ 

H2O_H2O_2771

0 1
O             -0.000000         -0.009833          0.000000
H             -0.799571         -0.580965          0.000000
H              0.799571         -0.580965          0.000000
O             -3.455608         -2.463362          0.000000
H             -4.171754         -1.790577          0.000000
H             -3.859777         -3.358992          0.000000

