%NProcShared=4 
%Mem=4GB  
%Chk=H2O_H2O_2322.chk 

#p CCSD(T)/cc-pVTZ 

H2O_H2O_2322

0 1
O             -0.000000         -0.009833          0.000000
H             -0.799571         -0.580965          0.000000
H              0.799571         -0.580965          0.000000
O             -3.163593         -2.254067          0.000000
H             -3.834204         -1.535883          0.000000
H             -3.625474         -3.121345          0.000000

