%NProcShared=4 
%Mem=4GB  
%Chk=H2O_H2O_4305.chk 

#p CCSD(T)/cc-pVTZ 

H2O_H2O_4305

0 1
O             -0.000000         -0.009833          0.000000
H             -0.799571         -0.580965          0.000000
H              0.799571         -0.580965          0.000000
O             -4.455316         -3.189476          0.000000
H             -5.396039         -3.473284          0.000000
H             -3.881763         -3.987312          0.000000

