%NProcShared=4 
%Mem=4GB  
%Chk=H2O_H2O_3480.chk 

#p CCSD(T)/cc-pVTZ 

H2O_H2O_3480

0 1
O             -0.000000         -0.009833          0.000000
H             -0.799571         -0.580965          0.000000
H              0.799571         -0.580965          0.000000
O             -3.919763         -2.806931          0.000000
H             -4.860485         -3.090739          0.000000
H             -3.346209         -3.604767          0.000000

