%NProcShared=4 
%Mem=4GB  
%Chk=H2O_H2O_13.chk 

#p CCSD(T)/cc-pVTZ 

H2O_H2O_13

0 1
O             -0.000000         -0.009833          0.000000
H             -0.799571         -0.580965          0.000000
H              0.799571         -0.580965          0.000000
O             -1.668178         -1.192778          0.000000
H             -2.624772         -0.968202          0.000000
H             -1.570384         -2.170501          0.000000

