%NProcShared=4 
%Mem=4GB  
%Chk=H2O_H2O_1087.chk 

#p CCSD(T)/cc-pVTZ 

H2O_H2O_1087

0 1
O             -0.000000         -0.009833          0.000000
H             -0.799571         -0.580965          0.000000
H              0.799571         -0.580965          0.000000
O             -2.365581         -1.691715          0.000000
H             -3.334814         -1.530184          0.000000
H             -2.204050         -2.660949          0.000000

