%NProcShared=4 
%Mem=4GB  
%Chk=H2O_H2O_318.chk 

#p CCSD(T)/cc-pVTZ 

H2O_H2O_318

0 1
O             -0.000000         -0.009833          0.000000
H             -0.799571         -0.580965          0.000000
H              0.799571         -0.580965          0.000000
O             -1.864616         -1.329165          0.000000
H             -2.698256         -0.809020          0.000000
H             -2.086291         -2.286435          0.000000

