%NProcShared=4 
%Mem=4GB  
%Chk=H2O_H2O_329.chk 

#p CCSD(T)/cc-pVTZ 

H2O_H2O_329

0 1
O             -0.000000         -0.009833          0.000000
H             -0.799571         -0.580965          0.000000
H              0.799571         -0.580965          0.000000
O             -1.874306         -1.346492          0.000000
H             -2.794452         -1.691219          0.000000
H             -1.249799         -2.105108          0.000000

