%NProcShared=4 
%Mem=4GB  
%Chk=H2O_H2O_3980.chk 

#p CCSD(T)/cc-pVTZ 

H2O_H2O_3980

0 1
O             -0.000000         -0.009833          0.000000
H             -0.799571         -0.580965          0.000000
H              0.799571         -0.580965          0.000000
O             -4.244341         -3.038776          0.000000
H             -5.185063         -3.322584          0.000000
H             -3.670787         -3.836612          0.000000

