%NProcShared=4 
%Mem=4GB  
%Chk=H2O_H2O_4483.chk 

#p CCSD(T)/cc-pVTZ 

H2O_H2O_4483

0 1
O             -0.000000         -0.009833          0.000000
H             -0.799571         -0.580965          0.000000
H              0.799571         -0.580965          0.000000
O             -4.570674         -3.269826          0.000000
H             -5.548689         -3.364655          0.000000
H             -4.163791         -4.164226          0.000000

