%NProcShared=4 
%Mem=4GB  
%Chk=H2O_H2O_1409.chk 

#p CCSD(T)/cc-pVTZ 

H2O_H2O_1409

0 1
O             -0.000000         -0.009833          0.000000
H             -0.799571         -0.580965          0.000000
H              0.799571         -0.580965          0.000000
O             -2.575066         -1.843638          0.000000
H             -3.557190         -1.874298          0.000000
H             -2.227551         -2.762735          0.000000

