%NProcShared=4 
%Mem=4GB  
%Chk=H2O_H2O_927.chk 

#p CCSD(T)/cc-pVTZ 

H2O_H2O_927

0 1
O             -0.000000         -0.009833          0.000000
H             -0.799571         -0.580965          0.000000
H              0.799571         -0.580965          0.000000
O             -2.262538         -1.624958          0.000000
H             -3.129816         -2.086838          0.000000
H             -1.544354         -2.295569          0.000000

