%NProcShared=4 
%Mem=4GB  
%Chk=H2O_H2O_4735.chk 

#p CCSD(T)/cc-pVTZ 

H2O_H2O_4735

0 1
O             -0.000000         -0.009833          0.000000
H             -0.799571         -0.580965          0.000000
H              0.799571         -0.580965          0.000000
O             -4.734033         -3.385034          0.000000
H             -5.716058         -3.351395          0.000000
H             -4.447373         -4.324892          0.000000

