%NProcShared=4 
%Mem=4GB  
%Chk=H2O_H2O_4445.chk 

#p CCSD(T)/cc-pVTZ 

H2O_H2O_4445

0 1
O             -0.000000         -0.009833          0.000000
H             -0.799571         -0.580965          0.000000
H              0.799571         -0.580965          0.000000
O             -4.542798         -3.240671          0.000000
H             -5.301413         -2.616164          0.000000
H             -4.887525         -4.160817          0.000000

