%NProcShared=4 
%Mem=4GB  
%Chk=H2O_H2O_3718.chk 

#p CCSD(T)/cc-pVTZ 

H2O_H2O_3718

0 1
O             -0.000000         -0.009833          0.000000
H             -0.799571         -0.580965          0.000000
H              0.799571         -0.580965          0.000000
O             -4.071747         -2.905713          0.000000
H             -4.905387         -2.385568          0.000000
H             -4.293421         -3.862983          0.000000

