%NProcShared=4 
%Mem=4GB  
%Chk=H2O_H2O_2426.chk 

#p CCSD(T)/cc-pVTZ 

H2O_H2O_2426

0 1
O             -0.000000         -0.009833          0.000000
H             -0.799571         -0.580965          0.000000
H              0.799571         -0.580965          0.000000
O             -3.235631         -2.320557          0.000000
H             -4.070845         -2.838171          0.000000
H             -2.475126         -2.942760          0.000000

