%NProcShared=4 
%Mem=4GB  
%Chk=H2O_H2O_4039.chk 

#p CCSD(T)/cc-pVTZ 

H2O_H2O_4039

0 1
O             -0.000000         -0.009833          0.000000
H             -0.799571         -0.580965          0.000000
H              0.799571         -0.580965          0.000000
O             -4.281439         -3.058636          0.000000
H             -5.221297         -2.771976          0.000000
H             -4.247800         -4.040661          0.000000

