%NProcShared=4 
%Mem=4GB  
%Chk=H2O_H2O_3240.chk 

#p CCSD(T)/cc-pVTZ 

H2O_H2O_3240

0 1
O             -0.000000         -0.009833          0.000000
H             -0.799571         -0.580965          0.000000
H              0.799571         -0.580965          0.000000
O             -3.762489         -2.687160          0.000000
H             -4.681586         -2.339645          0.000000
H             -3.793150         -3.669283          0.000000

