%NProcShared=4 
%Mem=4GB  
%Chk=H2O_H2O_1737.chk 

#p CCSD(T)/cc-pVTZ 

H2O_H2O_1737

0 1
O             -0.000000         -0.009833          0.000000
H             -0.799571         -0.580965          0.000000
H              0.799571         -0.580965          0.000000
O             -2.787532         -1.993114          0.000000
H             -3.756766         -1.831583          0.000000
H             -2.626001         -2.962348          0.000000

