%NProcShared=4 
%Mem=4GB  
%Chk=H2O_H2O_2727.chk 

#p CCSD(T)/cc-pVTZ 

H2O_H2O_2727

0 1
O             -0.000000         -0.009833          0.000000
H             -0.799571         -0.580965          0.000000
H              0.799571         -0.580965          0.000000
O             -3.431018         -2.459601          0.000000
H             -4.298297         -2.921481          0.000000
H             -2.712835         -3.130211          0.000000

