%NProcShared=4 
%Mem=4GB  
%Chk=H2O_H2O_4208.chk 

#p CCSD(T)/cc-pVTZ 

H2O_H2O_4208

0 1
O             -0.000000         -0.009833          0.000000
H             -0.799571         -0.580965          0.000000
H              0.799571         -0.580965          0.000000
O             -4.392156         -3.142311          0.000000
H             -5.370172         -3.237140          0.000000
H             -3.985273         -4.036711          0.000000

