%NProcShared=4 
%Mem=4GB  
%Chk=H2O_H2O_819.chk 

#p CCSD(T)/cc-pVTZ 

H2O_H2O_819

0 1
O             -0.000000         -0.009833          0.000000
H             -0.799571         -0.580965          0.000000
H              0.799571         -0.580965          0.000000
O             -2.189421         -1.560408          0.000000
H             -2.987257         -0.986854          0.000000
H             -2.473229         -2.501131          0.000000

