%NProcShared=4 
%Mem=4GB  
%Chk=H2O_H2O_62.chk 

#p CCSD(T)/cc-pVTZ 

H2O_H2O_62

0 1
O             -0.000000         -0.009833          0.000000
H             -0.799571         -0.580965          0.000000
H              0.799571         -0.580965          0.000000
O             -1.700196         -1.216432          0.000000
H             -2.669429         -1.054901          0.000000
H             -1.538665         -2.185666          0.000000

