%NProcShared=4 
%Mem=4GB  
%Chk=H2O_H2O_2106.chk 

#p CCSD(T)/cc-pVTZ 

H2O_H2O_2106

0 1
O             -0.000000         -0.009833          0.000000
H             -0.799571         -0.580965          0.000000
H              0.799571         -0.580965          0.000000
O             -3.027775         -2.169130          0.000000
H             -3.985046         -2.390804          0.000000
H             -2.507631         -3.002770          0.000000

