%NProcShared=4 
%Mem=4GB  
%Chk=H2O_H2O_4728.chk 

#p CCSD(T)/cc-pVTZ 

H2O_H2O_4728

0 1
O             -0.000000         -0.009833          0.000000
H             -0.799571         -0.580965          0.000000
H              0.799571         -0.580965          0.000000
O             -4.729965         -3.386877          0.000000
H             -5.625595         -3.791046          0.000000
H             -4.057180         -4.103024          0.000000

