%NProcShared=4 
%Mem=4GB  
%Chk=H2O_H2O_1699.chk 

#p CCSD(T)/cc-pVTZ 

H2O_H2O_1699

0 1
O             -0.000000         -0.009833          0.000000
H             -0.799571         -0.580965          0.000000
H              0.799571         -0.580965          0.000000
O             -2.757954         -1.962977          0.000000
H             -3.329086         -1.163405          0.000000
H             -3.329086         -2.762548          0.000000

