%NProcShared=4 
%Mem=4GB  
%Chk=H2O_H2O_1542.chk 

#p CCSD(T)/cc-pVTZ 

H2O_H2O_1542

0 1
O             -0.000000         -0.009833          0.000000
H             -0.799571         -0.580965          0.000000
H              0.799571         -0.580965          0.000000
O             -2.659567         -1.897772          0.000000
H             -3.525441         -1.433263          0.000000
H             -2.818158         -2.867491          0.000000

