%NProcShared=4 
%Mem=4GB  
%Chk=H2O_H2O_2055.chk 

#p CCSD(T)/cc-pVTZ 

H2O_H2O_2055

0 1
O             -0.000000         -0.009833          0.000000
H             -0.799571         -0.580965          0.000000
H              0.799571         -0.580965          0.000000
O             -2.994715         -2.146172          0.000000
H             -3.935438         -2.429980          0.000000
H             -2.421161         -2.944008          0.000000

