%NProcShared=4 
%Mem=4GB  
%Chk=H2O_H2O_697.chk 

#p CCSD(T)/cc-pVTZ 

H2O_H2O_697

0 1
O             -0.000000         -0.009833          0.000000
H             -0.799571         -0.580965          0.000000
H              0.799571         -0.580965          0.000000
O             -2.108714         -1.500569          0.000000
H             -2.779325         -0.782386          0.000000
H             -2.570595         -2.367848          0.000000

