%NProcShared=4 
%Mem=4GB  
%Chk=H2O_H2O_2883.chk 

#p CCSD(T)/cc-pVTZ 

H2O_H2O_2883

0 1
O             -0.000000         -0.009833          0.000000
H             -0.799571         -0.580965          0.000000
H              0.799571         -0.580965          0.000000
O             -3.532025         -2.527921          0.000000
H             -4.510040         -2.622750          0.000000
H             -3.125142         -3.422321          0.000000

