%NProcShared=4 
%Mem=4GB  
%Chk=H2O_H2O_4013.chk 

#p CCSD(T)/cc-pVTZ 

H2O_H2O_4013

0 1
O             -0.000000         -0.009833          0.000000
H             -0.799571         -0.580965          0.000000
H              0.799571         -0.580965          0.000000
O             -4.264802         -3.047541          0.000000
H             -5.221396         -2.822964          0.000000
H             -4.167008         -4.025264          0.000000

