%NProcShared=4 
%Mem=4GB  
%Chk=H2O_H2O_3567.chk 

#p CCSD(T)/cc-pVTZ 

H2O_H2O_3567

0 1
O             -0.000000         -0.009833          0.000000
H             -0.799571         -0.580965          0.000000
H              0.799571         -0.580965          0.000000
O             -3.974108         -2.836746          0.000000
H             -4.839982         -2.372237          0.000000
H             -4.132699         -3.806465          0.000000

