%NProcShared=4 
%Mem=4GB  
%Chk=H2O_H2O_3979.chk 

#p CCSD(T)/cc-pVTZ 

H2O_H2O_3979

0 1
O             -0.000000         -0.009833          0.000000
H             -0.799571         -0.580965          0.000000
H              0.799571         -0.580965          0.000000
O             -4.243725         -3.038963          0.000000
H             -5.163871         -3.383690          0.000000
H             -3.619218         -3.797578          0.000000

