%NProcShared=4 
%Mem=4GB  
%Chk=H2O_H2O_4684.chk 

#p CCSD(T)/cc-pVTZ 

H2O_H2O_4684

0 1
O             -0.000000         -0.009833          0.000000
H             -0.799571         -0.580965          0.000000
H              0.799571         -0.580965          0.000000
O             -4.701052         -3.362224          0.000000
H             -5.683175         -3.392885          0.000000
H             -4.353536         -4.281321          0.000000

