%NProcShared=4 
%Mem=4GB  
%Chk=H2O_H2O_1797.chk 

#p CCSD(T)/cc-pVTZ 

H2O_H2O_1797

0 1
O             -0.000000         -0.009833          0.000000
H             -0.799571         -0.580965          0.000000
H              0.799571         -0.580965          0.000000
O             -2.822786         -2.010629          0.000000
H             -3.493397         -1.292446          0.000000
H             -3.284666         -2.877908          0.000000

