%NProcShared=4 
%Mem=4GB  
%Chk=H2O_H2O_3233.chk 

#p CCSD(T)/cc-pVTZ 

H2O_H2O_3233

0 1
O             -0.000000         -0.009833          0.000000
H             -0.799571         -0.580965          0.000000
H              0.799571         -0.580965          0.000000
O             -3.759229         -2.690213          0.000000
H             -4.737245         -2.785042          0.000000
H             -3.352346         -3.584613          0.000000

