%NProcShared=4 
%Mem=4GB  
%Chk=H2O_H2O_2041.chk 

#p CCSD(T)/cc-pVTZ 

H2O_H2O_2041

0 1
O             -0.000000         -0.009833          0.000000
H             -0.799571         -0.580965          0.000000
H              0.799571         -0.580965          0.000000
O             -2.983841         -2.130185          0.000000
H             -3.878242         -1.723302          0.000000
H             -3.078670         -3.108200          0.000000

