%NProcShared=4 
%Mem=4GB  
%Chk=H2O_H2O_1791.chk 

#p CCSD(T)/cc-pVTZ 

H2O_H2O_1791

0 1
O             -0.000000         -0.009833          0.000000
H             -0.799571         -0.580965          0.000000
H              0.799571         -0.580965          0.000000
O             -2.821552         -2.014262          0.000000
H             -3.715953         -1.607379          0.000000
H             -2.916382         -2.992277          0.000000

