%NProcShared=4 
%Mem=4GB  
%Chk=H2O_H2O_11.chk 

#p CCSD(T)/cc-pVTZ 

H2O_H2O_11

0 1
O             -0.000000         -0.009833          0.000000
H             -0.799571         -0.580965          0.000000
H              0.799571         -0.580965          0.000000
O             -1.667268         -1.193688          0.000000
H             -2.644991         -1.095894          0.000000
H             -1.442692         -2.150282          0.000000

