%NProcShared=4 
%Mem=4GB  
%Chk=H2O_H2O_651.chk 

#p CCSD(T)/cc-pVTZ 

H2O_H2O_651

0 1
O             -0.000000         -0.009833          0.000000
H             -0.799571         -0.580965          0.000000
H              0.799571         -0.580965          0.000000
O             -2.083379         -1.497506          0.000000
H             -2.918593         -2.015120          0.000000
H             -1.322874         -2.119709          0.000000

