%NProcShared=4 
%Mem=4GB  
%Chk=H2O_H2O_2794.chk 

#p CCSD(T)/cc-pVTZ 

H2O_H2O_2794

0 1
O             -0.000000         -0.009833          0.000000
H             -0.799571         -0.580965          0.000000
H              0.799571         -0.580965          0.000000
O             -3.471504         -2.476197          0.000000
H             -4.269340         -1.902643          0.000000
H             -3.755312         -3.416920          0.000000

