%NProcShared=4 
%Mem=4GB  
%Chk=H2O_H2O_1685.chk 

#p CCSD(T)/cc-pVTZ 

H2O_H2O_1685

0 1
O             -0.000000         -0.009833          0.000000
H             -0.799571         -0.580965          0.000000
H              0.799571         -0.580965          0.000000
O             -2.754107         -1.970778          0.000000
H             -3.736133         -1.937139          0.000000
H             -2.467448         -2.910635          0.000000

