%NProcShared=4 
%Mem=4GB  
%Chk=H2O_H2O_3114.chk 

#p CCSD(T)/cc-pVTZ 

H2O_H2O_3114

0 1
O             -0.000000         -0.009833          0.000000
H             -0.799571         -0.580965          0.000000
H              0.799571         -0.580965          0.000000
O             -3.680970         -2.629722          0.000000
H             -4.620827         -2.343062          0.000000
H             -3.647331         -3.611747          0.000000

