%NProcShared=4 
%Mem=4GB  
%Chk=H2O_H2O_2903.chk 

#p CCSD(T)/cc-pVTZ 

H2O_H2O_2903

0 1
O             -0.000000         -0.009833          0.000000
H             -0.799571         -0.580965          0.000000
H              0.799571         -0.580965          0.000000
O             -3.545255         -2.540642          0.000000
H             -4.440886         -2.944811          0.000000
H             -2.872470         -3.256788          0.000000

