%NProcShared=4 
%Mem=4GB  
%Chk=H2O_H2O_3957.chk 

#p CCSD(T)/cc-pVTZ 

H2O_H2O_3957

0 1
O             -0.000000         -0.009833          0.000000
H             -0.799571         -0.580965          0.000000
H              0.799571         -0.580965          0.000000
O             -4.229300         -3.026692          0.000000
H             -5.199019         -3.185283          0.000000
H             -3.764791         -3.892566          0.000000

