%NProcShared=4 
%Mem=4GB  
%Chk=H2O_H2O_47.chk 

#p CCSD(T)/cc-pVTZ 

H2O_H2O_47

0 1
O             -0.000000         -0.009833          0.000000
H             -0.799571         -0.580965          0.000000
H              0.799571         -0.580965          0.000000
O             -1.686763         -1.199171          0.000000
H             -2.357374         -0.480987          0.000000
H             -2.148644         -2.066449          0.000000

