%NProcShared=4 
%Mem=4GB  
%Chk=H2O_H2O_2546.chk 

#p CCSD(T)/cc-pVTZ 

H2O_H2O_2546

0 1
O             -0.000000         -0.009833          0.000000
H             -0.799571         -0.580965          0.000000
H              0.799571         -0.580965          0.000000
O             -3.309548         -2.359032          0.000000
H             -4.025694         -1.686246          0.000000
H             -3.713717         -3.254662          0.000000

