%NProcShared=4 
%Mem=4GB  
%Chk=H2O_H2O_425.chk 

#p CCSD(T)/cc-pVTZ 

H2O_H2O_425

0 1
O             -0.000000         -0.009833          0.000000
H             -0.799571         -0.580965          0.000000
H              0.799571         -0.580965          0.000000
O             -1.936676         -1.393197          0.000000
H             -2.736248         -1.964329          0.000000
H             -1.137105         -1.964329          0.000000

