%NProcShared=4 
%Mem=4GB  
%Chk=H2O_H2O_3960.chk 

#p CCSD(T)/cc-pVTZ 

H2O_H2O_3960

0 1
O             -0.000000         -0.009833          0.000000
H             -0.799571         -0.580965          0.000000
H              0.799571         -0.580965          0.000000
O             -4.230937         -3.025674          0.000000
H             -5.212963         -2.992035          0.000000
H             -3.944277         -3.965532          0.000000

