%NProcShared=4 
%Mem=4GB  
%Chk=H2O_H2O_2244.chk 

#p CCSD(T)/cc-pVTZ 

H2O_H2O_2244

0 1
O             -0.000000         -0.009833          0.000000
H             -0.799571         -0.580965          0.000000
H              0.799571         -0.580965          0.000000
O             -3.114468         -2.221167          0.000000
H             -3.912304         -1.647613          0.000000
H             -3.398276         -3.161890          0.000000

