%NProcShared=4 
%Mem=4GB  
%Chk=H2O_H2O_4697.chk 

#p CCSD(T)/cc-pVTZ 

H2O_H2O_4697

0 1
O             -0.000000         -0.009833          0.000000
H             -0.799571         -0.580965          0.000000
H              0.799571         -0.580965          0.000000
O             -4.705338         -3.355332          0.000000
H             -5.375949         -2.637148          0.000000
H             -5.167219         -4.222610          0.000000

