%NProcShared=4 
%Mem=4GB  
%Chk=H2O_H2O_3163.chk 

#p CCSD(T)/cc-pVTZ 

H2O_H2O_3163

0 1
O             -0.000000         -0.009833          0.000000
H             -0.799571         -0.580965          0.000000
H              0.799571         -0.580965          0.000000
O             -3.713019         -2.653404          0.000000
H             -4.669613         -2.428827          0.000000
H             -3.615225         -3.631127          0.000000

