%NProcShared=4 
%Mem=4GB  
%Chk=H2O_H2O_938.chk 

#p CCSD(T)/cc-pVTZ 

H2O_H2O_938

0 1
O             -0.000000         -0.009833          0.000000
H             -0.799571         -0.580965          0.000000
H              0.799571         -0.580965          0.000000
O             -2.268647         -1.621692          0.000000
H             -3.225241         -1.397116          0.000000
H             -2.170853         -2.599415          0.000000

