%NProcShared=4 
%Mem=4GB  
%Chk=H2O_H2O_2898.chk 

#p CCSD(T)/cc-pVTZ 

H2O_H2O_2898

0 1
O             -0.000000         -0.009833          0.000000
H             -0.799571         -0.580965          0.000000
H              0.799571         -0.580965          0.000000
O             -3.536920         -2.520048          0.000000
H             -4.159124         -1.759543          0.000000
H             -4.054535         -3.355262          0.000000

