%NProcShared=4 
%Mem=4GB  
%Chk=H2O_H2O_55.chk 

#p CCSD(T)/cc-pVTZ 

H2O_H2O_55

0 1
O             -0.000000         -0.009833          0.000000
H             -0.799571         -0.580965          0.000000
H              0.799571         -0.580965          0.000000
O             -1.696403         -1.218791          0.000000
H             -2.637126         -1.502599          0.000000
H             -1.122850         -2.016627          0.000000

