%NProcShared=4 
%Mem=4GB  
%Chk=H2O_H2O_4733.chk 

#p CCSD(T)/cc-pVTZ 

H2O_H2O_4733

0 1
O             -0.000000         -0.009833          0.000000
H             -0.799571         -0.580965          0.000000
H              0.799571         -0.580965          0.000000
O             -4.732963         -3.385749          0.000000
H             -5.710978         -3.480578          0.000000
H             -4.326080         -4.280149          0.000000

