%NProcShared=4 
%Mem=4GB  
%Chk=H2O_H2O_2104.chk 

#p CCSD(T)/cc-pVTZ 

H2O_H2O_2104

0 1
O             -0.000000         -0.009833          0.000000
H             -0.799571         -0.580965          0.000000
H              0.799571         -0.580965          0.000000
O             -3.026557         -2.169543          0.000000
H             -3.946704         -2.514270          0.000000
H             -2.402051         -2.928159          0.000000

