%NProcShared=4 
%Mem=4GB  
%Chk=H2O_H2O_4704.chk 

#p CCSD(T)/cc-pVTZ 

H2O_H2O_4704

0 1
O             -0.000000         -0.009833          0.000000
H             -0.799571         -0.580965          0.000000
H              0.799571         -0.580965          0.000000
O             -4.714363         -3.375139          0.000000
H             -5.634509         -3.719865          0.000000
H             -4.089856         -4.133754          0.000000

