%NProcShared=4 
%Mem=4GB  
%Chk=H2O_H2O_2277.chk 

#p CCSD(T)/cc-pVTZ 

H2O_H2O_2277

0 1
O             -0.000000         -0.009833          0.000000
H             -0.799571         -0.580965          0.000000
H              0.799571         -0.580965          0.000000
O             -3.138898         -2.250940          0.000000
H             -4.006177         -2.712821          0.000000
H             -2.420715         -2.921551          0.000000

