%NProcShared=4 
%Mem=4GB  
%Chk=H2O_H2O_4125.chk 

#p CCSD(T)/cc-pVTZ 

H2O_H2O_4125

0 1
O             -0.000000         -0.009833          0.000000
H             -0.799571         -0.580965          0.000000
H              0.799571         -0.580965          0.000000
O             -4.338553         -3.108852          0.000000
H             -5.138124         -3.679984          0.000000
H             -3.538982         -3.679984          0.000000

