%NProcShared=4 
%Mem=4GB  
%Chk=H2O_H2O_4541.chk 

#p CCSD(T)/cc-pVTZ 

H2O_H2O_4541

0 1
O             -0.000000         -0.009833          0.000000
H             -0.799571         -0.580965          0.000000
H              0.799571         -0.580965          0.000000
O             -4.606731         -3.289411          0.000000
H             -5.501132         -2.882528          0.000000
H             -4.701561         -4.267427          0.000000

