%NProcShared=4 
%Mem=4GB  
%Chk=H2O_H2O_2047.chk 

#p CCSD(T)/cc-pVTZ 

H2O_H2O_2047

0 1
O             -0.000000         -0.009833          0.000000
H             -0.799571         -0.580965          0.000000
H              0.799571         -0.580965          0.000000
O             -2.985075         -2.126552          0.000000
H             -3.655686         -1.408368          0.000000
H             -3.446955         -2.993830          0.000000

