%NProcShared=4 
%Mem=4GB  
%Chk=H2O_H2O_959.chk 

#p CCSD(T)/cc-pVTZ 

H2O_H2O_959

0 1
O             -0.000000         -0.009833          0.000000
H             -0.799571         -0.580965          0.000000
H              0.799571         -0.580965          0.000000
O             -2.282946         -1.634977          0.000000
H             -3.265069         -1.665638          0.000000
H             -1.935431         -2.554074          0.000000

