%NProcShared=4 
%Mem=4GB  
%Chk=H2O_H2O_1273.chk 

#p CCSD(T)/cc-pVTZ 

H2O_H2O_1273

0 1
O             -0.000000         -0.009833          0.000000
H             -0.799571         -0.580965          0.000000
H              0.799571         -0.580965          0.000000
O             -2.482042         -1.766551          0.000000
H             -3.104246         -1.006046          0.000000
H             -2.999657         -2.601764          0.000000

