%NProcShared=4 
%Mem=4GB  
%Chk=H2O_H2O_2276.chk 

#p CCSD(T)/cc-pVTZ 

H2O_H2O_2276

0 1
O             -0.000000         -0.009833          0.000000
H             -0.799571         -0.580965          0.000000
H              0.799571         -0.580965          0.000000
O             -3.138258         -2.251003          0.000000
H             -3.973471         -2.768618          0.000000
H             -2.377752         -2.873207          0.000000

