%NProcShared=4 
%Mem=4GB  
%Chk=H2O_H2O_2250.chk 

#p CCSD(T)/cc-pVTZ 

H2O_H2O_2250

0 1
O             -0.000000         -0.009833          0.000000
H             -0.799571         -0.580965          0.000000
H              0.799571         -0.580965          0.000000
O             -3.121386         -2.239432          0.000000
H             -3.920957         -2.810564          0.000000
H             -2.321814         -2.810564          0.000000

