%NProcShared=4 
%Mem=4GB  
%Chk=H2O_H2O_2417.chk 

#p CCSD(T)/cc-pVTZ 

H2O_H2O_2417

0 1
O             -0.000000         -0.009833          0.000000
H             -0.799571         -0.580965          0.000000
H              0.799571         -0.580965          0.000000
O             -3.227578         -2.303501          0.000000
H             -4.093452         -1.838993          0.000000
H             -3.386170         -3.273220          0.000000

