%NProcShared=4 
%Mem=4GB  
%Chk=H2O_H2O_4196.chk 

#p CCSD(T)/cc-pVTZ 

H2O_H2O_4196

0 1
O             -0.000000         -0.009833          0.000000
H             -0.799571         -0.580965          0.000000
H              0.799571         -0.580965          0.000000
O             -4.380655         -3.124121          0.000000
H             -5.096802         -2.451336          0.000000
H             -4.784824         -4.019752          0.000000

