%NProcShared=4 
%Mem=4GB  
%Chk=H2O_H2O_4572.chk 

#p CCSD(T)/cc-pVTZ 

H2O_H2O_4572

0 1
O             -0.000000         -0.009833          0.000000
H             -0.799571         -0.580965          0.000000
H              0.799571         -0.580965          0.000000
O             -4.624194         -3.297370          0.000000
H             -5.294805         -2.579187          0.000000
H             -5.086074         -4.164649          0.000000

