%NProcShared=4 
%Mem=4GB  
%Chk=H2O_H2O_4904.chk 

#p CCSD(T)/cc-pVTZ 

H2O_H2O_4904

0 1
O             -0.000000         -0.009833          0.000000
H             -0.799571         -0.580965          0.000000
H              0.799571         -0.580965          0.000000
O             -4.844194         -3.467877          0.000000
H             -5.764340         -3.812604          0.000000
H             -4.219687         -4.226492          0.000000

