%NProcShared=4 
%Mem=4GB  
%Chk=H2O_H2O_4544.chk 

#p CCSD(T)/cc-pVTZ 

H2O_H2O_4544

0 1
O             -0.000000         -0.009833          0.000000
H             -0.799571         -0.580965          0.000000
H              0.799571         -0.580965          0.000000
O             -4.607527         -3.287656          0.000000
H             -5.405363         -2.714102          0.000000
H             -4.891335         -4.228378          0.000000

