%NProcShared=4 
%Mem=4GB  
%Chk=H2O_H2O_4422.chk 

#p CCSD(T)/cc-pVTZ 

H2O_H2O_4422

0 1
O             -0.000000         -0.009833          0.000000
H             -0.799571         -0.580965          0.000000
H              0.799571         -0.580965          0.000000
O             -4.526820         -3.227817          0.000000
H             -5.197431         -2.509634          0.000000
H             -4.988701         -4.095095          0.000000

