%NProcShared=4 
%Mem=4GB  
%Chk=H2O_H2O_1901.chk 

#p CCSD(T)/cc-pVTZ 

H2O_H2O_1901

0 1
O             -0.000000         -0.009833          0.000000
H             -0.799571         -0.580965          0.000000
H              0.799571         -0.580965          0.000000
O             -2.894824         -2.077119          0.000000
H             -3.730038         -2.594734          0.000000
H             -2.134319         -2.699323          0.000000

