%NProcShared=4 
%Mem=4GB  
%Chk=H2O_H2O_4246.chk 

#p CCSD(T)/cc-pVTZ 

H2O_H2O_4246

0 1
O             -0.000000         -0.009833          0.000000
H             -0.799571         -0.580965          0.000000
H              0.799571         -0.580965          0.000000
O             -4.413113         -3.147306          0.000000
H             -5.129260         -2.474520          0.000000
H             -4.817282         -4.042936          0.000000

