%NProcShared=4 
%Mem=4GB  
%Chk=H2O_H2O_83.chk 

#p CCSD(T)/cc-pVTZ 

H2O_H2O_83

0 1
O             -0.000000         -0.009833          0.000000
H             -0.799571         -0.580965          0.000000
H              0.799571         -0.580965          0.000000
O             -1.714388         -1.229587          0.000000
H             -2.692403         -1.324417          0.000000
H             -1.307505         -2.123988          0.000000

