%NProcShared=4 
%Mem=4GB  
%Chk=H2O_H2O_4962.chk 

#p CCSD(T)/cc-pVTZ 

H2O_H2O_4962

0 1
O             -0.000000         -0.009833          0.000000
H             -0.799571         -0.580965          0.000000
H              0.799571         -0.580965          0.000000
O             -4.881060         -3.488516          0.000000
H             -5.850293         -3.326985          0.000000
H             -4.719529         -4.457750          0.000000

