%NProcShared=4 
%Mem=4GB  
%Chk=H2O_H2O_4340.chk 

#p CCSD(T)/cc-pVTZ 

H2O_H2O_4340

0 1
O             -0.000000         -0.009833          0.000000
H             -0.799571         -0.580965          0.000000
H              0.799571         -0.580965          0.000000
O             -4.476561         -3.197220          0.000000
H             -5.395658         -2.849704          0.000000
H             -4.507221         -4.179343          0.000000

