%NProcShared=4 
%Mem=4GB  
%Chk=H2O_H2O_1233.chk 

#p CCSD(T)/cc-pVTZ 

H2O_H2O_1233

0 1
O             -0.000000         -0.009833          0.000000
H             -0.799571         -0.580965          0.000000
H              0.799571         -0.580965          0.000000
O             -2.460917         -1.762832          0.000000
H             -3.438933         -1.857661          0.000000
H             -2.054034         -2.657232          0.000000

