%NProcShared=4 
%Mem=4GB  
%Chk=H2O_H2O_3903.chk 

#p CCSD(T)/cc-pVTZ 

H2O_H2O_3903

0 1
O             -0.000000         -0.009833          0.000000
H             -0.799571         -0.580965          0.000000
H              0.799571         -0.580965          0.000000
O             -4.194411         -3.004332          0.000000
H             -5.090042         -3.408502          0.000000
H             -3.521626         -3.720479          0.000000

