%NProcShared=4 
%Mem=4GB  
%Chk=H2O_H2O_752.chk 

#p CCSD(T)/cc-pVTZ 

H2O_H2O_752

0 1
O             -0.000000         -0.009833          0.000000
H             -0.799571         -0.580965          0.000000
H              0.799571         -0.580965          0.000000
O             -2.148935         -1.543812          0.000000
H             -3.016214         -2.005693          0.000000
H             -1.430752         -2.214423          0.000000

