%NProcShared=4 
%Mem=4GB  
%Chk=H2O_H2O_892.chk 

#p CCSD(T)/cc-pVTZ 

H2O_H2O_892

0 1
O             -0.000000         -0.009833          0.000000
H             -0.799571         -0.580965          0.000000
H              0.799571         -0.580965          0.000000
O             -2.237616         -1.596373          0.000000
H             -3.103490         -1.131865          0.000000
H             -2.396207         -2.566092          0.000000

