%NProcShared=4 
%Mem=4GB  
%Chk=H2O_H2O_610.chk 

#p CCSD(T)/cc-pVTZ 

H2O_H2O_610

0 1
O             -0.000000         -0.009833          0.000000
H             -0.799571         -0.580965          0.000000
H              0.799571         -0.580965          0.000000
O             -2.056265         -1.472310          0.000000
H             -3.038290         -1.438672          0.000000
H             -1.769605         -2.412168          0.000000

