%NProcShared=4 
%Mem=4GB  
%Chk=H2O_H2O_3739.chk 

#p CCSD(T)/cc-pVTZ 

H2O_H2O_3739

0 1
O             -0.000000         -0.009833          0.000000
H             -0.799571         -0.580965          0.000000
H              0.799571         -0.580965          0.000000
O             -4.086692         -2.919528          0.000000
H             -5.026550         -2.632869          0.000000
H             -4.053053         -3.901554          0.000000

