%NProcShared=4 
%Mem=4GB  
%Chk=H2O_H2O_2498.chk 

#p CCSD(T)/cc-pVTZ 

H2O_H2O_2498

0 1
O             -0.000000         -0.009833          0.000000
H             -0.799571         -0.580965          0.000000
H              0.799571         -0.580965          0.000000
O             -3.277258         -2.334572          0.000000
H             -3.899461         -1.574067          0.000000
H             -3.794873         -3.169785          0.000000

