%NProcShared=4 
%Mem=4GB  
%Chk=H2O_H2O_4463.chk 

#p CCSD(T)/cc-pVTZ 

H2O_H2O_4463

0 1
O             -0.000000         -0.009833          0.000000
H             -0.799571         -0.580965          0.000000
H              0.799571         -0.580965          0.000000
O             -4.556922         -3.256201          0.000000
H             -5.513516         -3.031625          0.000000
H             -4.459127         -4.233925          0.000000

