%NProcShared=4 
%Mem=4GB  
%Chk=H2O_H2O_576.chk 

#p CCSD(T)/cc-pVTZ 

H2O_H2O_576

0 1
O             -0.000000         -0.009833          0.000000
H             -0.799571         -0.580965          0.000000
H              0.799571         -0.580965          0.000000
O             -2.034693         -1.462729          0.000000
H             -2.869906         -1.980344          0.000000
H             -1.274187         -2.084933          0.000000

