%NProcShared=4 
%Mem=4GB  
%Chk=H2O_H2O_3293.chk 

#p CCSD(T)/cc-pVTZ 

H2O_H2O_3293

0 1
O             -0.000000         -0.009833          0.000000
H             -0.799571         -0.580965          0.000000
H              0.799571         -0.580965          0.000000
O             -3.795855         -2.708644          0.000000
H             -4.629495         -2.188499          0.000000
H             -4.017530         -3.665915          0.000000

