%NProcShared=4 
%Mem=4GB  
%Chk=H2O_H2O_2863.chk 

#p CCSD(T)/cc-pVTZ 

H2O_H2O_2863

0 1
O             -0.000000         -0.009833          0.000000
H             -0.799571         -0.580965          0.000000
H              0.799571         -0.580965          0.000000
O             -3.518272         -2.514297          0.000000
H             -4.474866         -2.289720          0.000000
H             -3.420478         -3.492020          0.000000

