%NProcShared=4 
%Mem=4GB  
%Chk=H2O_H2O_3901.chk 

#p CCSD(T)/cc-pVTZ 

H2O_H2O_3901

0 1
O             -0.000000         -0.009833          0.000000
H             -0.799571         -0.580965          0.000000
H              0.799571         -0.580965          0.000000
O             -4.193136         -3.004500          0.000000
H             -5.028349         -3.522115          0.000000
H             -3.432631         -3.626704          0.000000

