%NProcShared=4 
%Mem=4GB  
%Chk=H2O_H2O_2815.chk 

#p CCSD(T)/cc-pVTZ 

H2O_H2O_2815

0 1
O             -0.000000         -0.009833          0.000000
H             -0.799571         -0.580965          0.000000
H              0.799571         -0.580965          0.000000
O             -3.486598         -2.490091          0.000000
H             -4.405694         -2.142576          0.000000
H             -3.517258         -3.472215          0.000000

