%NProcShared=4 
%Mem=4GB  
%Chk=H2O_H2O_4916.chk 

#p CCSD(T)/cc-pVTZ 

H2O_H2O_4916

0 1
O             -0.000000         -0.009833          0.000000
H             -0.799571         -0.580965          0.000000
H              0.799571         -0.580965          0.000000
O             -4.850165         -3.463295          0.000000
H             -5.744565         -3.056412          0.000000
H             -4.944994         -4.441310          0.000000

