%NProcShared=4 
%Mem=4GB  
%Chk=H2O_H2O_1958.chk 

#p CCSD(T)/cc-pVTZ 

H2O_H2O_1958

0 1
O             -0.000000         -0.009833          0.000000
H             -0.799571         -0.580965          0.000000
H              0.799571         -0.580965          0.000000
O             -2.931556         -2.099007          0.000000
H             -3.909571         -2.193836          0.000000
H             -2.524672         -2.993408          0.000000

