%NProcShared=4 
%Mem=4GB  
%Chk=H2O_H2O_4071.chk 

#p CCSD(T)/cc-pVTZ 

H2O_H2O_4071

0 1
O             -0.000000         -0.009833          0.000000
H             -0.799571         -0.580965          0.000000
H              0.799571         -0.580965          0.000000
O             -4.299511         -3.066160          0.000000
H             -5.015657         -2.393374          0.000000
H             -4.703680         -3.961790          0.000000

