%NProcShared=4 
%Mem=4GB  
%Chk=H2O_H2O_2784.chk 

#p CCSD(T)/cc-pVTZ 

H2O_H2O_2784

0 1
O             -0.000000         -0.009833          0.000000
H             -0.799571         -0.580965          0.000000
H              0.799571         -0.580965          0.000000
O             -3.467656         -2.481212          0.000000
H             -4.449779         -2.511873          0.000000
H             -3.120140         -3.400309          0.000000

