%NProcShared=4 
%Mem=4GB  
%Chk=H2O_H2O_202.chk 

#p CCSD(T)/cc-pVTZ 

H2O_H2O_202

0 1
O             -0.000000         -0.009833          0.000000
H             -0.799571         -0.580965          0.000000
H              0.799571         -0.580965          0.000000
O             -1.791900         -1.288782          0.000000
H             -2.659178         -1.750663          0.000000
H             -1.073716         -1.959393          0.000000

