%NProcShared=4 
%Mem=4GB  
%Chk=H2O_H2O_473.chk 

#p CCSD(T)/cc-pVTZ 

H2O_H2O_473

0 1
O             -0.000000         -0.009833          0.000000
H             -0.799571         -0.580965          0.000000
H              0.799571         -0.580965          0.000000
O             -1.962717         -1.395599          0.000000
H             -2.584921         -0.635093          0.000000
H             -2.480332         -2.230812          0.000000

