%NProcShared=4 
%Mem=4GB  
%Chk=H2O_H2O_4660.chk 

#p CCSD(T)/cc-pVTZ 

H2O_H2O_4660

0 1
O             -0.000000         -0.009833          0.000000
H             -0.799571         -0.580965          0.000000
H              0.799571         -0.580965          0.000000
O             -4.685346         -3.350257          0.000000
H             -5.667372         -3.316619          0.000000
H             -4.398686         -4.290115          0.000000

