%NProcShared=4 
%Mem=4GB  
%Chk=H2O_H2O_640.chk 

#p CCSD(T)/cc-pVTZ 

H2O_H2O_640

0 1
O             -0.000000         -0.009833          0.000000
H             -0.799571         -0.580965          0.000000
H              0.799571         -0.580965          0.000000
O             -2.074683         -1.481564          0.000000
H             -2.993780         -1.134049          0.000000
H             -2.105344         -2.463688          0.000000

