%NProcShared=4 
%Mem=4GB  
%Chk=H2O_H2O_2806.chk 

#p CCSD(T)/cc-pVTZ 

H2O_H2O_2806

0 1
O             -0.000000         -0.009833          0.000000
H             -0.799571         -0.580965          0.000000
H              0.799571         -0.580965          0.000000
O             -3.482185         -2.493713          0.000000
H             -4.439455         -2.715387          0.000000
H             -2.962040         -3.327353          0.000000

