%NProcShared=4 
%Mem=4GB  
%Chk=H2O_H2O_1332.chk 

#p CCSD(T)/cc-pVTZ 

H2O_H2O_1332

0 1
O             -0.000000         -0.009833          0.000000
H             -0.799571         -0.580965          0.000000
H              0.799571         -0.580965          0.000000
O             -2.525266         -1.809504          0.000000
H             -3.494985         -1.968095          0.000000
H             -2.060757         -2.675378          0.000000

