%NProcShared=4 
%Mem=4GB  
%Chk=H2O_H2O_2716.chk 

#p CCSD(T)/cc-pVTZ 

H2O_H2O_2716

0 1
O             -0.000000         -0.009833          0.000000
H             -0.799571         -0.580965          0.000000
H              0.799571         -0.580965          0.000000
O             -3.422022         -2.443176          0.000000
H             -4.316422         -2.036293          0.000000
H             -3.516851         -3.421191          0.000000

