%NProcShared=4 
%Mem=4GB  
%Chk=H2O_H2O_1346.chk 

#p CCSD(T)/cc-pVTZ 

H2O_H2O_1346

0 1
O             -0.000000         -0.009833          0.000000
H             -0.799571         -0.580965          0.000000
H              0.799571         -0.580965          0.000000
O             -2.530561         -1.802603          0.000000
H             -3.246707         -1.129818          0.000000
H             -2.934730         -2.698233          0.000000

