%NProcShared=4 
%Mem=4GB  
%Chk=H2O_H2O_4789.chk 

#p CCSD(T)/cc-pVTZ 

H2O_H2O_4789

0 1
O             -0.000000         -0.009833          0.000000
H             -0.799571         -0.580965          0.000000
H              0.799571         -0.580965          0.000000
O             -4.768306         -3.406403          0.000000
H             -5.708163         -3.119744          0.000000
H             -4.734667         -4.388429          0.000000

