%NProcShared=4 
%Mem=4GB  
%Chk=H2O_H2O_4228.chk 

#p CCSD(T)/cc-pVTZ 

H2O_H2O_4228

0 1
O             -0.000000         -0.009833          0.000000
H             -0.799571         -0.580965          0.000000
H              0.799571         -0.580965          0.000000
O             -4.405387         -3.155032          0.000000
H             -5.301017         -3.559201          0.000000
H             -3.732602         -3.871178          0.000000

