%NProcShared=4 
%Mem=4GB  
%Chk=H2O_H2O_3997.chk 

#p CCSD(T)/cc-pVTZ 

H2O_H2O_3997

0 1
O             -0.000000         -0.009833          0.000000
H             -0.799571         -0.580965          0.000000
H              0.799571         -0.580965          0.000000
O             -4.250929         -3.030748          0.000000
H             -4.921540         -2.312565          0.000000
H             -4.712810         -3.898027          0.000000

