%NProcShared=4 
%Mem=4GB  
%Chk=H2O_H2O_2950.chk 

#p CCSD(T)/cc-pVTZ 

H2O_H2O_2950

0 1
O             -0.000000         -0.009833          0.000000
H             -0.799571         -0.580965          0.000000
H              0.799571         -0.580965          0.000000
O             -3.575795         -2.564015          0.000000
H             -4.375366         -3.135147          0.000000
H             -2.776224         -3.135147          0.000000

