%NProcShared=4 
%Mem=4GB  
%Chk=H2O_H2O_4291.chk 

#p CCSD(T)/cc-pVTZ 

H2O_H2O_4291

0 1
O             -0.000000         -0.009833          0.000000
H             -0.799571         -0.580965          0.000000
H              0.799571         -0.580965          0.000000
O             -4.444442         -3.173489          0.000000
H             -5.338843         -2.766605          0.000000
H             -4.539272         -4.151504          0.000000

