%NProcShared=4 
%Mem=4GB  
%Chk=H2O_H2O_902.chk 

#p CCSD(T)/cc-pVTZ 

H2O_H2O_902

0 1
O             -0.000000         -0.009833          0.000000
H             -0.799571         -0.580965          0.000000
H              0.799571         -0.580965          0.000000
O             -2.246309         -1.613365          0.000000
H             -3.113588         -2.075246          0.000000
H             -1.528126         -2.283976          0.000000

