%NProcShared=4 
%Mem=4GB  
%Chk=H2O_H2O_1668.chk 

#p CCSD(T)/cc-pVTZ 

H2O_H2O_1668

0 1
O             -0.000000         -0.009833          0.000000
H             -0.799571         -0.580965          0.000000
H              0.799571         -0.580965          0.000000
O             -2.740977         -1.955147          0.000000
H             -3.574617         -1.435002          0.000000
H             -2.962651         -2.912418          0.000000

