%NProcShared=4 
%Mem=4GB  
%Chk=H2O_H2O_4560.chk 

#p CCSD(T)/cc-pVTZ 

H2O_H2O_4560

0 1
O             -0.000000         -0.009833          0.000000
H             -0.799571         -0.580965          0.000000
H              0.799571         -0.580965          0.000000
O             -4.620431         -3.303888          0.000000
H             -5.602456         -3.270249          0.000000
H             -4.333771         -4.243746          0.000000

