%NProcShared=4 
%Mem=4GB  
%Chk=H2O_H2O_3883.chk 

#p CCSD(T)/cc-pVTZ 

H2O_H2O_3883

0 1
O             -0.000000         -0.009833          0.000000
H             -0.799571         -0.580965          0.000000
H              0.799571         -0.580965          0.000000
O             -4.181181         -2.991612          0.000000
H             -5.159196         -3.086441          0.000000
H             -3.774298         -3.886012          0.000000

