%NProcShared=4 
%Mem=4GB  
%Chk=H2O_H2O_2224.chk 

#p CCSD(T)/cc-pVTZ 

H2O_H2O_2224

0 1
O             -0.000000         -0.009833          0.000000
H             -0.799571         -0.580965          0.000000
H              0.799571         -0.580965          0.000000
O             -3.098761         -2.206414          0.000000
H             -3.669893         -1.406843          0.000000
H             -3.669893         -3.005986          0.000000

