%NProcShared=4 
%Mem=4GB  
%Chk=H2O_H2O_479.chk 

#p CCSD(T)/cc-pVTZ 

H2O_H2O_479

0 1
O             -0.000000         -0.009833          0.000000
H             -0.799571         -0.580965          0.000000
H              0.799571         -0.580965          0.000000
O             -1.971679         -1.416046          0.000000
H             -2.891825         -1.760773          0.000000
H             -1.347172         -2.174661          0.000000

