%NProcShared=4 
%Mem=4GB  
%Chk=H2O_H2O_2178.chk 

#p CCSD(T)/cc-pVTZ 

H2O_H2O_2178

0 1
O             -0.000000         -0.009833          0.000000
H             -0.799571         -0.580965          0.000000
H              0.799571         -0.580965          0.000000
O             -3.074617         -2.204466          0.000000
H             -3.970248         -2.608635          0.000000
H             -2.401832         -2.920612          0.000000

