%NProcShared=4 
%Mem=4GB  
%Chk=H2O_H2O_918.chk 

#p CCSD(T)/cc-pVTZ 

H2O_H2O_918

0 1
O             -0.000000         -0.009833          0.000000
H             -0.799571         -0.580965          0.000000
H              0.799571         -0.580965          0.000000
O             -2.254110         -1.607379          0.000000
H             -3.087750         -1.087234          0.000000
H             -2.475784         -2.564650          0.000000

