%NProcShared=4 
%Mem=4GB  
%Chk=H2O_H2O_4602.chk 

#p CCSD(T)/cc-pVTZ 

H2O_H2O_4602

0 1
O             -0.000000         -0.009833          0.000000
H             -0.799571         -0.580965          0.000000
H              0.799571         -0.580965          0.000000
O             -4.648186         -3.329021          0.000000
H             -5.515465         -3.790902          0.000000
H             -3.930003         -3.999632          0.000000

