%NProcShared=4 
%Mem=4GB  
%Chk=H2O_H2O_3212.chk 

#p CCSD(T)/cc-pVTZ 

H2O_H2O_3212

0 1
O             -0.000000         -0.009833          0.000000
H             -0.799571         -0.580965          0.000000
H              0.799571         -0.580965          0.000000
O             -3.745037         -2.677058          0.000000
H             -4.714271         -2.515527          0.000000
H             -3.583506         -3.646292          0.000000

