%NProcShared=4 
%Mem=4GB  
%Chk=H2O_H2O_2710.chk 

#p CCSD(T)/cc-pVTZ 

H2O_H2O_2710

0 1
O             -0.000000         -0.009833          0.000000
H             -0.799571         -0.580965          0.000000
H              0.799571         -0.580965          0.000000
O             -3.419492         -2.446061          0.000000
H             -4.401518         -2.412422          0.000000
H             -3.132833         -3.385918          0.000000

