%NProcShared=4 
%Mem=4GB  
%Chk=H2O_H2O_4921.chk 

#p CCSD(T)/cc-pVTZ 

H2O_H2O_4921

0 1
O             -0.000000         -0.009833          0.000000
H             -0.799571         -0.580965          0.000000
H              0.799571         -0.580965          0.000000
O             -4.851293         -3.460297          0.000000
H             -5.567440         -2.787511          0.000000
H             -5.255462         -4.355927          0.000000

