%NProcShared=4 
%Mem=4GB  
%Chk=H2O_H2O_4188.chk 

#p CCSD(T)/cc-pVTZ 

H2O_H2O_4188

0 1
O             -0.000000         -0.009833          0.000000
H             -0.799571         -0.580965          0.000000
H              0.799571         -0.580965          0.000000
O             -4.378404         -3.128687          0.000000
H             -5.334998         -2.904110          0.000000
H             -4.280610         -4.106410          0.000000

