%NProcShared=4 
%Mem=4GB  
%Chk=H2O_H2O_4587.chk 

#p CCSD(T)/cc-pVTZ 

H2O_H2O_4587

0 1
O             -0.000000         -0.009833          0.000000
H             -0.799571         -0.580965          0.000000
H              0.799571         -0.580965          0.000000
O             -4.637627         -3.314632          0.000000
H             -5.606860         -3.153101          0.000000
H             -4.476096         -4.283866          0.000000

