%NProcShared=4 
%Mem=4GB  
%Chk=H2O_H2O_3450.chk 

#p CCSD(T)/cc-pVTZ 

H2O_H2O_3450

0 1
O             -0.000000         -0.009833          0.000000
H             -0.799571         -0.580965          0.000000
H              0.799571         -0.580965          0.000000
O             -3.900373         -2.795861          0.000000
H             -4.699944         -3.366992          0.000000
H             -3.100801         -3.366992          0.000000

