%NProcShared=4 
%Mem=4GB  
%Chk=H2O_H2O_3976.chk 

#p CCSD(T)/cc-pVTZ 

H2O_H2O_3976

0 1
O             -0.000000         -0.009833          0.000000
H             -0.799571         -0.580965          0.000000
H              0.799571         -0.580965          0.000000
O             -4.241823         -3.039277          0.000000
H             -5.077036         -3.556892          0.000000
H             -3.481317         -3.661481          0.000000

