%NProcShared=4 
%Mem=4GB  
%Chk=H2O_H2O_3215.chk 

#p CCSD(T)/cc-pVTZ 

H2O_H2O_3215

0 1
O             -0.000000         -0.009833          0.000000
H             -0.799571         -0.580965          0.000000
H              0.799571         -0.580965          0.000000
O             -3.746260         -2.675568          0.000000
H             -4.665357         -2.328052          0.000000
H             -3.776921         -3.657691          0.000000

