%NProcShared=4 
%Mem=4GB  
%Chk=H2O_H2O_4325.chk 

#p CCSD(T)/cc-pVTZ 

H2O_H2O_4325

0 1
O             -0.000000         -0.009833          0.000000
H             -0.799571         -0.580965          0.000000
H              0.799571         -0.580965          0.000000
O             -4.468385         -3.201590          0.000000
H             -5.267956         -3.772722          0.000000
H             -3.668813         -3.772722          0.000000

