%NProcShared=4 
%Mem=4GB  
%Chk=H2O_H2O_3405.chk 

#p CCSD(T)/cc-pVTZ 

H2O_H2O_3405

0 1
O             -0.000000         -0.009833          0.000000
H             -0.799571         -0.580965          0.000000
H              0.799571         -0.580965          0.000000
O             -3.871076         -2.772154          0.000000
H             -4.811799         -3.055962          0.000000
H             -3.297522         -3.569990          0.000000

