%NProcShared=4 
%Mem=4GB  
%Chk=H2O_H2O_4963.chk 

#p CCSD(T)/cc-pVTZ 

H2O_H2O_4963

0 1
O             -0.000000         -0.009833          0.000000
H             -0.799571         -0.580965          0.000000
H              0.799571         -0.580965          0.000000
O             -4.881500         -3.488047          0.000000
H             -5.838093         -3.263471          0.000000
H             -4.783705         -4.465770          0.000000

