%NProcShared=4 
%Mem=4GB  
%Chk=H2O_H2O_3922.chk 

#p CCSD(T)/cc-pVTZ 

H2O_H2O_3922

0 1
O             -0.000000         -0.009833          0.000000
H             -0.799571         -0.580965          0.000000
H              0.799571         -0.580965          0.000000
O             -4.202242         -2.995972          0.000000
H             -4.872853         -2.277788          0.000000
H             -4.664123         -3.863250          0.000000

