%NProcShared=4 
%Mem=4GB  
%Chk=H2O_H2O_3008.chk 

#p CCSD(T)/cc-pVTZ 

H2O_H2O_3008

0 1
O             -0.000000         -0.009833          0.000000
H             -0.799571         -0.580965          0.000000
H              0.799571         -0.580965          0.000000
O             -3.613169         -2.585882          0.000000
H             -4.591185         -2.680711          0.000000
H             -3.206286         -3.480283          0.000000

