%NProcShared=4 
%Mem=4GB  
%Chk=H2O_H2O_2204.chk 

#p CCSD(T)/cc-pVTZ 

H2O_H2O_2204

0 1
O             -0.000000         -0.009833          0.000000
H             -0.799571         -0.580965          0.000000
H              0.799571         -0.580965          0.000000
O             -3.091473         -2.215912          0.000000
H             -4.011619         -2.560639          0.000000
H             -2.466966         -2.974528          0.000000

