%NProcShared=4 
%Mem=4GB  
%Chk=H2O_H2O_2689.chk 

#p CCSD(T)/cc-pVTZ 

H2O_H2O_2689

0 1
O             -0.000000         -0.009833          0.000000
H             -0.799571         -0.580965          0.000000
H              0.799571         -0.580965          0.000000
O             -3.405078         -2.432653          0.000000
H             -4.344936         -2.145994          0.000000
H             -3.371440         -3.414679          0.000000

