%NProcShared=4 
%Mem=4GB  
%Chk=H2O_H2O_3862.chk 

#p CCSD(T)/cc-pVTZ 

H2O_H2O_3862

0 1
O             -0.000000         -0.009833          0.000000
H             -0.799571         -0.580965          0.000000
H              0.799571         -0.580965          0.000000
O             -4.166988         -2.978457          0.000000
H             -5.136222         -2.816926          0.000000
H             -4.005457         -3.947690          0.000000

