%NProcShared=4 
%Mem=4GB  
%Chk=H2O_H2O_4429.chk 

#p CCSD(T)/cc-pVTZ 

H2O_H2O_4429

0 1
O             -0.000000         -0.009833          0.000000
H             -0.799571         -0.580965          0.000000
H              0.799571         -0.580965          0.000000
O             -4.535845         -3.247624          0.000000
H             -5.455991         -3.592351          0.000000
H             -3.911338         -4.006239          0.000000

