%NProcShared=4 
%Mem=4GB  
%Chk=H2O_H2O_4715.chk 

#p CCSD(T)/cc-pVTZ 

H2O_H2O_4715

0 1
O             -0.000000         -0.009833          0.000000
H             -0.799571         -0.580965          0.000000
H              0.799571         -0.580965          0.000000
O             -4.719994         -3.371104          0.000000
H             -5.639091         -3.023588          0.000000
H             -4.750655         -4.353227          0.000000

