%NProcShared=4 
%Mem=4GB  
%Chk=H2O_H2O_4104.chk 

#p CCSD(T)/cc-pVTZ 

H2O_H2O_4104

0 1
O             -0.000000         -0.009833          0.000000
H             -0.799571         -0.580965          0.000000
H              0.799571         -0.580965          0.000000
O             -4.324869         -3.096924          0.000000
H             -5.245016         -3.441651          0.000000
H             -3.700362         -3.855540          0.000000

