%NProcShared=4 
%Mem=4GB  
%Chk=H2O_H2O_1970.chk 

#p CCSD(T)/cc-pVTZ 

H2O_H2O_1970

0 1
O             -0.000000         -0.009833          0.000000
H             -0.799571         -0.580965          0.000000
H              0.799571         -0.580965          0.000000
O             -2.936137         -2.093037          0.000000
H             -3.694753         -1.468530          0.000000
H             -3.280864         -3.013183          0.000000

