%NProcShared=4 
%Mem=4GB  
%Chk=H2O_H2O_289.chk 

#p CCSD(T)/cc-pVTZ 

H2O_H2O_289

0 1
O             -0.000000         -0.009833          0.000000
H             -0.799571         -0.580965          0.000000
H              0.799571         -0.580965          0.000000
O             -1.847104         -1.319796          0.000000
H             -2.786962         -1.033136          0.000000
H             -1.813465         -2.301822          0.000000

