%NProcShared=4 
%Mem=4GB  
%Chk=H2O_H2O_587.chk 

#p CCSD(T)/cc-pVTZ 

H2O_H2O_587

0 1
O             -0.000000         -0.009833          0.000000
H             -0.799571         -0.580965          0.000000
H              0.799571         -0.580965          0.000000
O             -2.041003         -1.459870          0.000000
H             -3.010236         -1.298339          0.000000
H             -1.879472         -2.429104          0.000000

