%NProcShared=4 
%Mem=4GB  
%Chk=H2O_H2O_4064.chk 

#p CCSD(T)/cc-pVTZ 

H2O_H2O_4064

0 1
O             -0.000000         -0.009833          0.000000
H             -0.799571         -0.580965          0.000000
H              0.799571         -0.580965          0.000000
O             -4.297668         -3.070228          0.000000
H             -5.237526         -2.783568          0.000000
H             -4.264029         -4.052253          0.000000

