%NProcShared=4 
%Mem=4GB  
%Chk=H2O_H2O_1439.chk 

#p CCSD(T)/cc-pVTZ 

H2O_H2O_1439

0 1
O             -0.000000         -0.009833          0.000000
H             -0.799571         -0.580965          0.000000
H              0.799571         -0.580965          0.000000
O             -2.593633         -1.853040          0.000000
H             -3.533491         -1.566380          0.000000
H             -2.559995         -2.835066          0.000000

