%NProcShared=4 
%Mem=4GB  
%Chk=H2O_H2O_207.chk 

#p CCSD(T)/cc-pVTZ 

H2O_H2O_207

0 1
O             -0.000000         -0.009833          0.000000
H             -0.799571         -0.580965          0.000000
H              0.799571         -0.580965          0.000000
O             -1.794965         -1.287852          0.000000
H             -2.764684         -1.446443          0.000000
H             -1.330457         -2.153726          0.000000

