%NProcShared=4 
%Mem=4GB  
%Chk=H2O_H2O_3523.chk 

#p CCSD(T)/cc-pVTZ 

H2O_H2O_3523

0 1
O             -0.000000         -0.009833          0.000000
H             -0.799571         -0.580965          0.000000
H              0.799571         -0.580965          0.000000
O             -3.942643         -2.809855          0.000000
H             -4.564846         -2.049349          0.000000
H             -4.460258         -3.645068          0.000000

