%NProcShared=4 
%Mem=4GB  
%Chk=H2O_H2O_243.chk 

#p CCSD(T)/cc-pVTZ 

H2O_H2O_243

0 1
O             -0.000000         -0.009833          0.000000
H             -0.799571         -0.580965          0.000000
H              0.799571         -0.580965          0.000000
O             -1.815930         -1.294388          0.000000
H             -2.649570         -0.774243          0.000000
H             -2.037604         -2.251659          0.000000

