%NProcShared=4 
%Mem=4GB  
%Chk=H2O_H2O_2528.chk 

#p CCSD(T)/cc-pVTZ 

H2O_H2O_2528

0 1
O             -0.000000         -0.009833          0.000000
H             -0.799571         -0.580965          0.000000
H              0.799571         -0.580965          0.000000
O             -3.301822         -2.366758          0.000000
H             -4.197452         -2.770927          0.000000
H             -2.629037         -3.082904          0.000000

