%NProcShared=4 
%Mem=4GB  
%Chk=H2O_H2O_1891.chk 

#p CCSD(T)/cc-pVTZ 

H2O_H2O_1891

0 1
O             -0.000000         -0.009833          0.000000
H             -0.799571         -0.580965          0.000000
H              0.799571         -0.580965          0.000000
O             -2.886468         -2.060631          0.000000
H             -3.780869         -1.653748          0.000000
H             -2.981297         -3.038646          0.000000

