%NProcShared=4 
%Mem=4GB  
%Chk=H2O_H2O_2368.chk 

#p CCSD(T)/cc-pVTZ 

H2O_H2O_2368

0 1
O             -0.000000         -0.009833          0.000000
H             -0.799571         -0.580965          0.000000
H              0.799571         -0.580965          0.000000
O             -3.195386         -2.279731          0.000000
H             -4.029026         -1.759586          0.000000
H             -3.417060         -3.237001          0.000000

