%NProcShared=4 
%Mem=4GB  
%Chk=H2O_H2O_1513.chk 

#p CCSD(T)/cc-pVTZ 

H2O_H2O_1513

0 1
O             -0.000000         -0.009833          0.000000
H             -0.799571         -0.580965          0.000000
H              0.799571         -0.580965          0.000000
O             -2.641912         -1.888314          0.000000
H             -3.598506         -1.663738          0.000000
H             -2.544117         -2.866037          0.000000

