%NProcShared=4 
%Mem=4GB  
%Chk=H2O_H2O_682.chk 

#p CCSD(T)/cc-pVTZ 

H2O_H2O_682

0 1
O             -0.000000         -0.009833          0.000000
H             -0.799571         -0.580965          0.000000
H              0.799571         -0.580965          0.000000
O             -2.103314         -1.508105          0.000000
H             -3.073033         -1.666696          0.000000
H             -1.638806         -2.373979          0.000000

