%NProcShared=4 
%Mem=4GB  
%Chk=H2O_H2O_4131.chk 

#p CCSD(T)/cc-pVTZ 

H2O_H2O_4131

0 1
O             -0.000000         -0.009833          0.000000
H             -0.799571         -0.580965          0.000000
H              0.799571         -0.580965          0.000000
O             -4.342316         -3.108103          0.000000
H             -5.299586         -3.329777          0.000000
H             -3.822171         -3.941743          0.000000

