%NProcShared=4 
%Mem=4GB  
%Chk=H2O_H2O_2438.chk 

#p CCSD(T)/cc-pVTZ 

H2O_H2O_2438

0 1
O             -0.000000         -0.009833          0.000000
H             -0.799571         -0.580965          0.000000
H              0.799571         -0.580965          0.000000
O             -3.242381         -2.317228          0.000000
H             -4.198975         -2.092652          0.000000
H             -3.144587         -3.294951          0.000000

