%NProcShared=4 
%Mem=4GB  
%Chk=H2O_H2O_3346.chk 

#p CCSD(T)/cc-pVTZ 

H2O_H2O_3346

0 1
O             -0.000000         -0.009833          0.000000
H             -0.799571         -0.580965          0.000000
H              0.799571         -0.580965          0.000000
O             -3.828873         -2.729984          0.000000
H             -4.545019         -2.057199          0.000000
H             -4.233042         -3.625615          0.000000

