%NProcShared=4 
%Mem=4GB  
%Chk=H2O_H2O_2410.chk 

#p CCSD(T)/cc-pVTZ 

H2O_H2O_2410

0 1
O             -0.000000         -0.009833          0.000000
H             -0.799571         -0.580965          0.000000
H              0.799571         -0.580965          0.000000
O             -3.224745         -2.306953          0.000000
H             -4.206771         -2.273315          0.000000
H             -2.938086         -3.246811          0.000000

