%NProcShared=4 
%Mem=4GB  
%Chk=H2O_H2O_3127.chk 

#p CCSD(T)/cc-pVTZ 

H2O_H2O_3127

0 1
O             -0.000000         -0.009833          0.000000
H             -0.799571         -0.580965          0.000000
H              0.799571         -0.580965          0.000000
O             -3.690681         -2.645077          0.000000
H             -4.557959         -3.106958          0.000000
H             -2.972498         -3.315688          0.000000

