%NProcShared=4 
%Mem=4GB  
%Chk=H2O_H2O_2940.chk 

#p CCSD(T)/cc-pVTZ 

H2O_H2O_2940

0 1
O             -0.000000         -0.009833          0.000000
H             -0.799571         -0.580965          0.000000
H              0.799571         -0.580965          0.000000
O             -3.567742         -2.548053          0.000000
H             -4.486839         -2.200537          0.000000
H             -3.598403         -3.530176          0.000000

