%NProcShared=4 
%Mem=4GB  
%Chk=H2O_H2O_4310.chk 

#p CCSD(T)/cc-pVTZ 

H2O_H2O_4310

0 1
O             -0.000000         -0.009833          0.000000
H             -0.799571         -0.580965          0.000000
H              0.799571         -0.580965          0.000000
O             -4.458142         -3.187966          0.000000
H             -5.440167         -3.154327          0.000000
H             -4.171482         -4.127823          0.000000

