%NProcShared=4 
%Mem=4GB  
%Chk=H2O_H2O_2856.chk 

#p CCSD(T)/cc-pVTZ 

H2O_H2O_2856

0 1
O             -0.000000         -0.009833          0.000000
H             -0.799571         -0.580965          0.000000
H              0.799571         -0.580965          0.000000
O             -3.514642         -2.516898          0.000000
H             -4.471913         -2.738572          0.000000
H             -2.994498         -3.350538          0.000000

