%NProcShared=4 
%Mem=4GB  
%Chk=H2O_H2O_2668.chk 

#p CCSD(T)/cc-pVTZ 

H2O_H2O_2668

0 1
O             -0.000000         -0.009833          0.000000
H             -0.799571         -0.580965          0.000000
H              0.799571         -0.580965          0.000000
O             -3.390133         -2.418838          0.000000
H             -4.223773         -1.898693          0.000000
H             -3.611807         -3.376108          0.000000

