%NProcShared=4 
%Mem=4GB  
%Chk=H2O_H2O_448.chk 

#p CCSD(T)/cc-pVTZ 

H2O_H2O_448

0 1
O             -0.000000         -0.009833          0.000000
H             -0.799571         -0.580965          0.000000
H              0.799571         -0.580965          0.000000
O             -1.946488         -1.384007          0.000000
H             -2.568692         -0.623501          0.000000
H             -2.464103         -2.219220          0.000000

