%NProcShared=4 
%Mem=4GB  
%Chk=H2O_H2O_4651.chk 

#p CCSD(T)/cc-pVTZ 

H2O_H2O_4651

0 1
O             -0.000000         -0.009833          0.000000
H             -0.799571         -0.580965          0.000000
H              0.799571         -0.580965          0.000000
O             -4.680003         -3.352268          0.000000
H             -5.515216         -3.869883          0.000000
H             -3.919497         -3.974472          0.000000

