%NProcShared=4 
%Mem=4GB  
%Chk=H2O_H2O_733.chk 

#p CCSD(T)/cc-pVTZ 

H2O_H2O_733

0 1
O             -0.000000         -0.009833          0.000000
H             -0.799571         -0.580965          0.000000
H              0.799571         -0.580965          0.000000
O             -2.136340         -1.530986          0.000000
H             -3.114355         -1.625815          0.000000
H             -1.729456         -2.425387          0.000000

