%NProcShared=4 
%Mem=4GB  
%Chk=H2O_H2O_4635.chk 

#p CCSD(T)/cc-pVTZ 

H2O_H2O_4635

0 1
O             -0.000000         -0.009833          0.000000
H             -0.799571         -0.580965          0.000000
H              0.799571         -0.580965          0.000000
O             -4.669117         -3.338665          0.000000
H             -5.651143         -3.305026          0.000000
H             -4.382457         -4.278523          0.000000

