%NProcShared=4 
%Mem=4GB  
%Chk=H2O_H2O_2151.chk 

#p CCSD(T)/cc-pVTZ 

H2O_H2O_2151

0 1
O             -0.000000         -0.009833          0.000000
H             -0.799571         -0.580965          0.000000
H              0.799571         -0.580965          0.000000
O             -3.057113         -2.193042          0.000000
H             -3.892327         -2.710656          0.000000
H             -2.296608         -2.815245          0.000000

