%NProcShared=4 
%Mem=4GB  
%Chk=H2O_H2O_2299.chk 

#p CCSD(T)/cc-pVTZ 

H2O_H2O_2299

0 1
O             -0.000000         -0.009833          0.000000
H             -0.799571         -0.580965          0.000000
H              0.799571         -0.580965          0.000000
O             -3.147448         -2.241191          0.000000
H             -3.718580         -1.441620          0.000000
H             -3.718580         -3.040762          0.000000

