%NProcShared=4 
%Mem=4GB  
%Chk=H2O_H2O_193.chk 

#p CCSD(T)/cc-pVTZ 

H2O_H2O_193

0 1
O             -0.000000         -0.009833          0.000000
H             -0.799571         -0.580965          0.000000
H              0.799571         -0.580965          0.000000
O             -1.783472         -1.271204          0.000000
H             -2.617112         -0.751059          0.000000
H             -2.005146         -2.228474          0.000000

