%NProcShared=4 
%Mem=4GB  
%Chk=H2O_H2O_3184.chk 

#p CCSD(T)/cc-pVTZ 

H2O_H2O_3184

0 1
O             -0.000000         -0.009833          0.000000
H             -0.799571         -0.580965          0.000000
H              0.799571         -0.580965          0.000000
O             -3.727318         -2.666688          0.000000
H             -4.709441         -2.697349          0.000000
H             -3.379803         -3.585785          0.000000

