%NProcShared=4 
%Mem=4GB  
%Chk=H2O_H2O_1611.chk 

#p CCSD(T)/cc-pVTZ 

H2O_H2O_1611

0 1
O             -0.000000         -0.009833          0.000000
H             -0.799571         -0.580965          0.000000
H              0.799571         -0.580965          0.000000
O             -2.705918         -1.935593          0.000000
H             -3.683641         -1.837798          0.000000
H             -2.481342         -2.892187          0.000000

