%NProcShared=4 
%Mem=4GB  
%Chk=H2O_H2O_274.chk 

#p CCSD(T)/cc-pVTZ 

H2O_H2O_274

0 1
O             -0.000000         -0.009833          0.000000
H             -0.799571         -0.580965          0.000000
H              0.799571         -0.580965          0.000000
O             -1.832907         -1.302218          0.000000
H             -2.404039         -0.502646          0.000000
H             -2.404039         -2.101789          0.000000

