%NProcShared=4 
%Mem=4GB  
%Chk=H2O_H2O_4815.chk 

#p CCSD(T)/cc-pVTZ 

H2O_H2O_4815

0 1
O             -0.000000         -0.009833          0.000000
H             -0.799571         -0.580965          0.000000
H              0.799571         -0.580965          0.000000
O             -4.784910         -3.417473          0.000000
H             -5.704006         -3.069957          0.000000
H             -4.815570         -4.399596          0.000000

