%NProcShared=4 
%Mem=4GB  
%Chk=H2O_H2O_1838.chk 

#p CCSD(T)/cc-pVTZ 

H2O_H2O_1838

0 1
O             -0.000000         -0.009833          0.000000
H             -0.799571         -0.580965          0.000000
H              0.799571         -0.580965          0.000000
O             -2.852888         -2.039014          0.000000
H             -3.809481         -1.814437          0.000000
H             -2.755093         -3.016737          0.000000

