%NProcShared=4 
%Mem=4GB  
%Chk=H2O_H2O_348.chk 

#p CCSD(T)/cc-pVTZ 

H2O_H2O_348

0 1
O             -0.000000         -0.009833          0.000000
H             -0.799571         -0.580965          0.000000
H              0.799571         -0.580965          0.000000
O             -1.881573         -1.337637          0.000000
H             -2.503776         -0.577132          0.000000
H             -2.399187         -2.172851          0.000000

