%NProcShared=4 
%Mem=4GB  
%Chk=H2O_H2O_4245.chk 

#p CCSD(T)/cc-pVTZ 

H2O_H2O_4245

0 1
O             -0.000000         -0.009833          0.000000
H             -0.799571         -0.580965          0.000000
H              0.799571         -0.580965          0.000000
O             -4.412967         -3.147933          0.000000
H             -5.171582         -2.523426          0.000000
H             -4.757694         -4.068079          0.000000

