%NProcShared=4 
%Mem=4GB  
%Chk=H2O_H2O_535.chk 

#p CCSD(T)/cc-pVTZ 

H2O_H2O_535

0 1
O             -0.000000         -0.009833          0.000000
H             -0.799571         -0.580965          0.000000
H              0.799571         -0.580965          0.000000
O             -2.007578         -1.437534          0.000000
H             -2.989604         -1.403895          0.000000
H             -1.720918         -2.377391          0.000000

