%NProcShared=4 
%Mem=4GB  
%Chk=H2O_H2O_1015.chk 

#p CCSD(T)/cc-pVTZ 

H2O_H2O_1015

0 1
O             -0.000000         -0.009833          0.000000
H             -0.799571         -0.580965          0.000000
H              0.799571         -0.580965          0.000000
O             -2.318117         -1.655448          0.000000
H             -3.237214         -1.307933          0.000000
H             -2.348778         -2.637572          0.000000

