%NProcShared=4 
%Mem=4GB  
%Chk=H2O_H2O_1229.chk 

#p CCSD(T)/cc-pVTZ 

H2O_H2O_1229

0 1
O             -0.000000         -0.009833          0.000000
H             -0.799571         -0.580965          0.000000
H              0.799571         -0.580965          0.000000
O             -2.458546         -1.763814          0.000000
H             -3.378692         -2.108541          0.000000
H             -1.834039         -2.522429          0.000000

