%NProcShared=4 
%Mem=4GB  
%Chk=H2O_H2O_3676.chk 

#p CCSD(T)/cc-pVTZ 

H2O_H2O_3676

0 1
O             -0.000000         -0.009833          0.000000
H             -0.799571         -0.580965          0.000000
H              0.799571         -0.580965          0.000000
O             -4.047076         -2.900170          0.000000
H             -4.882289         -3.417785          0.000000
H             -3.286571         -3.522374          0.000000

