%NProcShared=4 
%Mem=4GB  
%Chk=H2O_H2O_1878.chk 

#p CCSD(T)/cc-pVTZ 

H2O_H2O_1878

0 1
O             -0.000000         -0.009833          0.000000
H             -0.799571         -0.580965          0.000000
H              0.799571         -0.580965          0.000000
O             -2.879871         -2.065359          0.000000
H             -3.775501         -2.469528          0.000000
H             -2.207085         -2.781505          0.000000

