%NProcShared=4 
%Mem=4GB  
%Chk=H2O_H2O_325.chk 

#p CCSD(T)/cc-pVTZ 

H2O_H2O_325

0 1
O             -0.000000         -0.009833          0.000000
H             -0.799571         -0.580965          0.000000
H              0.799571         -0.580965          0.000000
O             -1.871761         -1.346827          0.000000
H             -2.671332         -1.917959          0.000000
H             -1.072189         -1.917959          0.000000

