%NProcShared=4 
%Mem=4GB  
%Chk=H2O_H2O_407.chk 

#p CCSD(T)/cc-pVTZ 

H2O_H2O_407

0 1
O             -0.000000         -0.009833          0.000000
H             -0.799571         -0.580965          0.000000
H              0.799571         -0.580965          0.000000
O             -1.924796         -1.380590          0.000000
H             -2.894515         -1.539181          0.000000
H             -1.460288         -2.246464          0.000000

