%NProcShared=4 
%Mem=4GB  
%Chk=H2O_H2O_4650.chk 

#p CCSD(T)/cc-pVTZ 

H2O_H2O_4650

0 1
O             -0.000000         -0.009833          0.000000
H             -0.799571         -0.580965          0.000000
H              0.799571         -0.580965          0.000000
O             -4.679360         -3.352289          0.000000
H             -5.478931         -3.923421          0.000000
H             -3.879788         -3.923421          0.000000

