%NProcShared=4 
%Mem=4GB  
%Chk=H2O_H2O_3411.chk 

#p CCSD(T)/cc-pVTZ 

H2O_H2O_3411

0 1
O             -0.000000         -0.009833          0.000000
H             -0.799571         -0.580965          0.000000
H              0.799571         -0.580965          0.000000
O             -3.874399         -2.770236          0.000000
H             -4.852122         -2.672442          0.000000
H             -3.649823         -3.726830          0.000000

