%NProcShared=4 
%Mem=4GB  
%Chk=H2O_H2O_400.chk 

#p CCSD(T)/cc-pVTZ 

H2O_H2O_400

0 1
O             -0.000000         -0.009833          0.000000
H             -0.799571         -0.580965          0.000000
H              0.799571         -0.580965          0.000000
O             -1.920447         -1.381604          0.000000
H             -2.720019         -1.952736          0.000000
H             -1.120876         -1.952736          0.000000

