%NProcShared=4 
%Mem=4GB  
%Chk=H2O_H2O_1285.chk 

#p CCSD(T)/cc-pVTZ 

H2O_H2O_1285

0 1
O             -0.000000         -0.009833          0.000000
H             -0.799571         -0.580965          0.000000
H              0.799571         -0.580965          0.000000
O             -2.494445         -1.785301          0.000000
H             -3.476471         -1.751663          0.000000
H             -2.207785         -2.725159          0.000000

