%NProcShared=4 
%Mem=4GB  
%Chk=H2O_H2O_3039.chk 

#p CCSD(T)/cc-pVTZ 

H2O_H2O_3039

0 1
O             -0.000000         -0.009833          0.000000
H             -0.799571         -0.580965          0.000000
H              0.799571         -0.580965          0.000000
O             -3.632283         -2.594945          0.000000
H             -4.572140         -2.308285          0.000000
H             -3.598644         -3.576971          0.000000

