%NProcShared=4 
%Mem=4GB  
%Chk=H2O_H2O_2048.chk 

#p CCSD(T)/cc-pVTZ 

H2O_H2O_2048

0 1
O             -0.000000         -0.009833          0.000000
H             -0.799571         -0.580965          0.000000
H              0.799571         -0.580965          0.000000
O             -2.985138         -2.125911          0.000000
H             -3.607341         -1.365406          0.000000
H             -3.502752         -2.961125          0.000000

