%NProcShared=4 
%Mem=4GB  
%Chk=H2O_H2O_4551.chk 

#p CCSD(T)/cc-pVTZ 

H2O_H2O_4551

0 1
O             -0.000000         -0.009833          0.000000
H             -0.799571         -0.580965          0.000000
H              0.799571         -0.580965          0.000000
O             -4.615088         -3.305899          0.000000
H             -5.450301         -3.823514          0.000000
H             -3.854582         -3.928103          0.000000

