%NProcShared=4 
%Mem=4GB  
%Chk=H2O_H2O_2437.chk 

#p CCSD(T)/cc-pVTZ 

H2O_H2O_2437

0 1
O             -0.000000         -0.009833          0.000000
H             -0.799571         -0.580965          0.000000
H              0.799571         -0.580965          0.000000
O             -3.241941         -2.317698          0.000000
H             -4.211175         -2.156167          0.000000
H             -3.080410         -3.286931          0.000000

