%NProcShared=4 
%Mem=4GB  
%Chk=H2O_H2O_3444.chk 

#p CCSD(T)/cc-pVTZ 

H2O_H2O_3444

0 1
O             -0.000000         -0.009833          0.000000
H             -0.799571         -0.580965          0.000000
H              0.799571         -0.580965          0.000000
O             -3.893455         -2.777596          0.000000
H             -4.691291         -2.204042          0.000000
H             -4.177263         -3.718318          0.000000

