%NProcShared=4 
%Mem=4GB  
%Chk=H2O_H2O_1535.chk 

#p CCSD(T)/cc-pVTZ 

H2O_H2O_1535

0 1
O             -0.000000         -0.009833          0.000000
H             -0.799571         -0.580965          0.000000
H              0.799571         -0.580965          0.000000
O             -2.656734         -1.901224          0.000000
H             -3.638760         -1.867585          0.000000
H             -2.370074         -2.841082          0.000000

