%NProcShared=4 
%Mem=4GB  
%Chk=H2O_H2O_3277.chk 

#p CCSD(T)/cc-pVTZ 

H2O_H2O_3277

0 1
O             -0.000000         -0.009833          0.000000
H             -0.799571         -0.580965          0.000000
H              0.799571         -0.580965          0.000000
O             -3.788054         -2.714630          0.000000
H             -4.655333         -3.176511          0.000000
H             -3.069871         -3.385241          0.000000

