%NProcShared=4 
%Mem=4GB  
%Chk=H2O_H2O_1890.chk 

#p CCSD(T)/cc-pVTZ 

H2O_H2O_1890

0 1
O             -0.000000         -0.009833          0.000000
H             -0.799571         -0.580965          0.000000
H              0.799571         -0.580965          0.000000
O             -2.886128         -2.061178          0.000000
H             -3.805225         -1.713662          0.000000
H             -2.916789         -3.043301          0.000000

