%NProcShared=4 
%Mem=4GB  
%Chk=H2O_H2O_1802.chk 

#p CCSD(T)/cc-pVTZ 

H2O_H2O_1802

0 1
O             -0.000000         -0.009833          0.000000
H             -0.799571         -0.580965          0.000000
H              0.799571         -0.580965          0.000000
O             -2.830549         -2.030687          0.000000
H             -3.697828         -2.492568          0.000000
H             -2.112366         -2.701298          0.000000

