%NProcShared=4 
%Mem=4GB  
%Chk=H2O_H2O_287.chk 

#p CCSD(T)/cc-pVTZ 

H2O_H2O_287

0 1
O             -0.000000         -0.009833          0.000000
H             -0.799571         -0.580965          0.000000
H              0.799571         -0.580965          0.000000
O             -1.846256         -1.320763          0.000000
H             -2.815490         -1.159232          0.000000
H             -1.684725         -2.289997          0.000000

