%NProcShared=4 
%Mem=4GB  
%Chk=H2O_H2O_4781.chk 

#p CCSD(T)/cc-pVTZ 

H2O_H2O_4781

0 1
O             -0.000000         -0.009833          0.000000
H             -0.799571         -0.580965          0.000000
H              0.799571         -0.580965          0.000000
O             -4.764268         -3.409502          0.000000
H             -5.721538         -3.631176          0.000000
H             -4.244123         -4.243142          0.000000

