%NProcShared=4 
%Mem=4GB  
%Chk=H2O_H2O_4810.chk 

#p CCSD(T)/cc-pVTZ 

H2O_H2O_4810

0 1
O             -0.000000         -0.009833          0.000000
H             -0.799571         -0.580965          0.000000
H              0.799571         -0.580965          0.000000
O             -4.782720         -3.419811          0.000000
H             -5.764745         -3.386172          0.000000
H             -4.496060         -4.359669          0.000000

