%NProcShared=4 
%Mem=4GB  
%Chk=H2O_H2O_3821.chk 

#p CCSD(T)/cc-pVTZ 

H2O_H2O_3821

0 1
O             -0.000000         -0.009833          0.000000
H             -0.799571         -0.580965          0.000000
H              0.799571         -0.580965          0.000000
O             -4.137222         -2.950237          0.000000
H             -4.853368         -2.277452          0.000000
H             -4.541391         -3.845868          0.000000

