%NProcShared=4 
%Mem=4GB  
%Chk=H2O_H2O_2388.chk 

#p CCSD(T)/cc-pVTZ 

H2O_H2O_2388

0 1
O             -0.000000         -0.009833          0.000000
H             -0.799571         -0.580965          0.000000
H              0.799571         -0.580965          0.000000
O             -3.209923         -2.294043          0.000000
H             -4.166517         -2.069467          0.000000
H             -3.112129         -3.271766          0.000000

