%NProcShared=4 
%Mem=4GB  
%Chk=H2O_H2O_298.chk 

#p CCSD(T)/cc-pVTZ 

H2O_H2O_298

0 1
O             -0.000000         -0.009833          0.000000
H             -0.799571         -0.580965          0.000000
H              0.799571         -0.580965          0.000000
O             -1.849115         -1.314453          0.000000
H             -2.471318         -0.553947          0.000000
H             -2.366730         -2.149666          0.000000

