%NProcShared=4 
%Mem=4GB  
%Chk=H2O_H2O_2521.chk 

#p CCSD(T)/cc-pVTZ 

H2O_H2O_2521

0 1
O             -0.000000         -0.009833          0.000000
H             -0.799571         -0.580965          0.000000
H              0.799571         -0.580965          0.000000
O             -3.293319         -2.347440          0.000000
H             -4.009465         -1.674654          0.000000
H             -3.697488         -3.243070          0.000000

