%NProcShared=4 
%Mem=4GB  
%Chk=H2O_H2O_4698.chk 

#p CCSD(T)/cc-pVTZ 

H2O_H2O_4698

0 1
O             -0.000000         -0.009833          0.000000
H             -0.799571         -0.580965          0.000000
H              0.799571         -0.580965          0.000000
O             -4.705401         -3.354691          0.000000
H             -5.327604         -2.594186          0.000000
H             -5.223016         -4.189905          0.000000

