%NProcShared=4 
%Mem=4GB  
%Chk=H2O_H2O_4148.chk 

#p CCSD(T)/cc-pVTZ 

H2O_H2O_4148

0 1
O             -0.000000         -0.009833          0.000000
H             -0.799571         -0.580965          0.000000
H              0.799571         -0.580965          0.000000
O             -4.348365         -3.099662          0.000000
H             -4.970569         -2.339156          0.000000
H             -4.865980         -3.934875          0.000000

