%NProcShared=4 
%Mem=4GB  
%Chk=H2O_H2O_580.chk 

#p CCSD(T)/cc-pVTZ 

H2O_H2O_580

0 1
O             -0.000000         -0.009833          0.000000
H             -0.799571         -0.580965          0.000000
H              0.799571         -0.580965          0.000000
O             -2.037210         -1.462228          0.000000
H             -2.977933         -1.746036          0.000000
H             -1.463657         -2.260064          0.000000

