%NProcShared=4 
%Mem=4GB  
%Chk=H2O_H2O_2518.chk 

#p CCSD(T)/cc-pVTZ 

H2O_H2O_2518

0 1
O             -0.000000         -0.009833          0.000000
H             -0.799571         -0.580965          0.000000
H              0.799571         -0.580965          0.000000
O             -3.292759         -2.349284          0.000000
H             -4.126399         -1.829139          0.000000
H             -3.514434         -3.306555          0.000000

