%NProcShared=4 
%Mem=4GB  
%Chk=H2O_H2O_2168.chk 

#p CCSD(T)/cc-pVTZ 

H2O_H2O_2168

0 1
O             -0.000000         -0.009833          0.000000
H             -0.799571         -0.580965          0.000000
H              0.799571         -0.580965          0.000000
O             -3.065555         -2.186993          0.000000
H             -3.899195         -1.666848          0.000000
H             -3.287229         -3.144263          0.000000

