%NProcShared=4 
%Mem=4GB  
%Chk=H2O_H2O_2805.chk 

#p CCSD(T)/cc-pVTZ 

H2O_H2O_2805

0 1
O             -0.000000         -0.009833          0.000000
H             -0.799571         -0.580965          0.000000
H              0.799571         -0.580965          0.000000
O             -3.481582         -2.493940          0.000000
H             -4.422305         -2.777748          0.000000
H             -2.908028         -3.291776          0.000000

