%NProcShared=4 
%Mem=4GB  
%Chk=H2O_H2O_2056.chk 

#p CCSD(T)/cc-pVTZ 

H2O_H2O_2056

0 1
O             -0.000000         -0.009833          0.000000
H             -0.799571         -0.580965          0.000000
H              0.799571         -0.580965          0.000000
O             -2.995318         -2.145945          0.000000
H             -3.952588         -2.367620          0.000000
H             -2.475173         -2.979585          0.000000

