%NProcShared=4 
%Mem=4GB  
%Chk=H2O_H2O_3526.chk 

#p CCSD(T)/cc-pVTZ 

H2O_H2O_3526

0 1
O             -0.000000         -0.009833          0.000000
H             -0.799571         -0.580965          0.000000
H              0.799571         -0.580965          0.000000
O             -3.949703         -2.830616          0.000000
H             -4.784916         -3.348231          0.000000
H             -3.189197         -3.452820          0.000000

