%NProcShared=4 
%Mem=4GB  
%Chk=H2O_H2O_2424.chk 

#p CCSD(T)/cc-pVTZ 

H2O_H2O_2424

0 1
O             -0.000000         -0.009833          0.000000
H             -0.799571         -0.580965          0.000000
H              0.799571         -0.580965          0.000000
O             -3.228592         -2.299152          0.000000
H             -3.799724         -1.499581          0.000000
H             -3.799724         -3.098724          0.000000

