%NProcShared=4 
%Mem=4GB  
%Chk=H2O_H2O_4522.chk 

#p CCSD(T)/cc-pVTZ 

H2O_H2O_4522

0 1
O             -0.000000         -0.009833          0.000000
H             -0.799571         -0.580965          0.000000
H              0.799571         -0.580965          0.000000
O             -4.591736         -3.274186          0.000000
H             -5.262347         -2.556003          0.000000
H             -5.053617         -4.141465          0.000000

