%NProcShared=4 
%Mem=4GB  
%Chk=H2O_H2O_1406.chk 

#p CCSD(T)/cc-pVTZ 

H2O_H2O_1406

0 1
O             -0.000000         -0.009833          0.000000
H             -0.799571         -0.580965          0.000000
H              0.799571         -0.580965          0.000000
O             -2.573366         -1.844546          0.000000
H             -3.530637         -2.066221          0.000000
H             -2.053221         -2.678186          0.000000

