%NProcShared=4 
%Mem=4GB  
%Chk=H2O_H2O_4741.chk 

#p CCSD(T)/cc-pVTZ 

H2O_H2O_4741

0 1
O             -0.000000         -0.009833          0.000000
H             -0.799571         -0.580965          0.000000
H              0.799571         -0.580965          0.000000
O             -4.736562         -3.382150          0.000000
H             -5.630963         -2.975266          0.000000
H             -4.831392         -4.360165          0.000000

