%NProcShared=4 
%Mem=4GB  
%Chk=H2O_H2O_4657.chk 

#p CCSD(T)/cc-pVTZ 

H2O_H2O_4657

0 1
O             -0.000000         -0.009833          0.000000
H             -0.799571         -0.580965          0.000000
H              0.799571         -0.580965          0.000000
O             -4.683709         -3.351275          0.000000
H             -5.653428         -3.509867          0.000000
H             -4.219200         -4.217149          0.000000

