%NProcShared=4 
%Mem=4GB  
%Chk=H2O_H2O_291.chk 

#p CCSD(T)/cc-pVTZ 

H2O_H2O_291

0 1
O             -0.000000         -0.009833          0.000000
H             -0.799571         -0.580965          0.000000
H              0.799571         -0.580965          0.000000
O             -1.847819         -1.318726          0.000000
H             -2.742219         -0.911843          0.000000
H             -1.942648         -2.296741          0.000000

