%NProcShared=4 
%Mem=4GB  
%Chk=H2O_H2O_2100.chk 

#p CCSD(T)/cc-pVTZ 

H2O_H2O_2100

0 1
O             -0.000000         -0.009833          0.000000
H             -0.799571         -0.580965          0.000000
H              0.799571         -0.580965          0.000000
O             -3.024012         -2.169878          0.000000
H             -3.823584         -2.741010          0.000000
H             -2.224441         -2.741010          0.000000

