%NProcShared=4 
%Mem=4GB  
%Chk=H2O_H2O_4430.chk 

#p CCSD(T)/cc-pVTZ 

H2O_H2O_4430

0 1
O             -0.000000         -0.009833          0.000000
H             -0.799571         -0.580965          0.000000
H              0.799571         -0.580965          0.000000
O             -4.536461         -3.247437          0.000000
H             -5.477183         -3.531245          0.000000
H             -3.962907         -4.045273          0.000000

