%NProcShared=4 
%Mem=4GB  
%Chk=H2O_H2O_2657.chk 

#p CCSD(T)/cc-pVTZ 

H2O_H2O_2657

0 1
O             -0.000000         -0.009833          0.000000
H             -0.799571         -0.580965          0.000000
H              0.799571         -0.580965          0.000000
O             -3.385397         -2.423894          0.000000
H             -4.355116         -2.582485          0.000000
H             -2.920889         -3.289768          0.000000

