%NProcShared=4 
%Mem=4GB  
%Chk=H2O_H2O_2160.chk 

#p CCSD(T)/cc-pVTZ 

H2O_H2O_2160

0 1
O             -0.000000         -0.009833          0.000000
H             -0.799571         -0.580965          0.000000
H              0.799571         -0.580965          0.000000
O             -3.062456         -2.191031          0.000000
H             -4.044482         -2.157392          0.000000
H             -2.775797         -3.130889          0.000000

