%NProcShared=4 
%Mem=4GB  
%Chk=H2O_H2O_2765.chk 

#p CCSD(T)/cc-pVTZ 

H2O_H2O_2765

0 1
O             -0.000000         -0.009833          0.000000
H             -0.799571         -0.580965          0.000000
H              0.799571         -0.580965          0.000000
O             -3.454140         -2.466907          0.000000
H             -4.373237         -2.119392          0.000000
H             -3.484800         -3.449030          0.000000

