%NProcShared=4 
%Mem=4GB  
%Chk=H2O_H2O_3481.chk 

#p CCSD(T)/cc-pVTZ 

H2O_H2O_3481

0 1
O             -0.000000         -0.009833          0.000000
H             -0.799571         -0.580965          0.000000
H              0.799571         -0.580965          0.000000
O             -3.920365         -2.806704          0.000000
H             -4.877635         -3.028379          0.000000
H             -3.400220         -3.640344          0.000000

