%NProcShared=4 
%Mem=4GB  
%Chk=H2O_H2O_2298.chk 

#p CCSD(T)/cc-pVTZ 

H2O_H2O_2298

0 1
O             -0.000000         -0.009833          0.000000
H             -0.799571         -0.580965          0.000000
H              0.799571         -0.580965          0.000000
O             -3.147427         -2.241834          0.000000
H             -3.769630         -1.481328          0.000000
H             -3.665042         -3.077047          0.000000

