%NProcShared=4 
%Mem=4GB  
%Chk=H2O_H2O_1781.chk 

#p CCSD(T)/cc-pVTZ 

H2O_H2O_1781

0 1
O             -0.000000         -0.009833          0.000000
H             -0.799571         -0.580965          0.000000
H              0.799571         -0.580965          0.000000
O             -2.816800         -2.018430          0.000000
H             -3.774070         -2.240105          0.000000
H             -2.296655         -2.852070          0.000000

