%NProcShared=4 
%Mem=4GB  
%Chk=H2O_H2O_2808.chk 

#p CCSD(T)/cc-pVTZ 

H2O_H2O_2808

0 1
O             -0.000000         -0.009833          0.000000
H             -0.799571         -0.580965          0.000000
H              0.799571         -0.580965          0.000000
O             -3.483338         -2.493144          0.000000
H             -4.461353         -2.587973          0.000000
H             -3.076455         -3.387545          0.000000

