%NProcShared=4 
%Mem=4GB  
%Chk=H2O_H2O_2228.chk 

#p CCSD(T)/cc-pVTZ 

H2O_H2O_2228

0 1
O             -0.000000         -0.009833          0.000000
H             -0.799571         -0.580965          0.000000
H              0.799571         -0.580965          0.000000
O             -3.107075         -2.227651          0.000000
H             -4.002705         -2.631820          0.000000
H             -2.434290         -2.943797          0.000000

