%NProcShared=4 
%Mem=4GB  
%Chk=H2O_H2O_4978.chk 

#p CCSD(T)/cc-pVTZ 

H2O_H2O_4978

0 1
O             -0.000000         -0.009833          0.000000
H             -0.799571         -0.580965          0.000000
H              0.799571         -0.580965          0.000000
O             -4.892254         -3.502800          0.000000
H             -5.787884         -3.906969          0.000000
H             -4.219468         -4.218946          0.000000

