%NProcShared=4 
%Mem=4GB  
%Chk=H2O_H2O_2981.chk 

#p CCSD(T)/cc-pVTZ 

H2O_H2O_2981

0 1
O             -0.000000         -0.009833          0.000000
H             -0.799571         -0.580965          0.000000
H              0.799571         -0.580965          0.000000
O             -3.595787         -2.574859          0.000000
H             -4.553057         -2.796533          0.000000
H             -3.075642         -3.408499          0.000000

