%NProcShared=4 
%Mem=4GB  
%Chk=H2O_H2O_2923.chk 

#p CCSD(T)/cc-pVTZ 

H2O_H2O_2923

0 1
O             -0.000000         -0.009833          0.000000
H             -0.799571         -0.580965          0.000000
H              0.799571         -0.580965          0.000000
O             -3.553149         -2.531641          0.000000
H             -4.175353         -1.771135          0.000000
H             -4.070764         -3.366854          0.000000

