%NProcShared=4 
%Mem=4GB  
%Chk=H2O_H2O_3053.chk 

#p CCSD(T)/cc-pVTZ 

H2O_H2O_3053

0 1
O             -0.000000         -0.009833          0.000000
H             -0.799571         -0.580965          0.000000
H              0.799571         -0.580965          0.000000
O             -3.642629         -2.610195          0.000000
H             -4.538259         -3.014365          0.000000
H             -2.969843         -3.326342          0.000000

