%NProcShared=4 
%Mem=4GB  
%Chk=H2O_H2O_4458.chk 

#p CCSD(T)/cc-pVTZ 

H2O_H2O_4458

0 1
O             -0.000000         -0.009833          0.000000
H             -0.799571         -0.580965          0.000000
H              0.799571         -0.580965          0.000000
O             -4.554445         -3.258234          0.000000
H             -5.532461         -3.353063          0.000000
H             -4.147562         -4.152634          0.000000

