%NProcShared=4 
%Mem=4GB  
%Chk=H2O_H2O_1711.chk 

#p CCSD(T)/cc-pVTZ 

H2O_H2O_1711

0 1
O             -0.000000         -0.009833          0.000000
H             -0.799571         -0.580965          0.000000
H              0.799571         -0.580965          0.000000
O             -2.770834         -1.981962          0.000000
H             -3.748557         -1.884168          0.000000
H             -2.546257         -2.938556          0.000000

