%NProcShared=4 
%Mem=4GB  
%Chk=H2O_H2O_2002.chk 

#p CCSD(T)/cc-pVTZ 

H2O_H2O_2002

0 1
O             -0.000000         -0.009833          0.000000
H             -0.799571         -0.580965          0.000000
H              0.799571         -0.580965          0.000000
O             -2.960380         -2.123425          0.000000
H             -3.827659         -2.585306          0.000000
H             -2.242197         -2.794036          0.000000

