%NProcShared=4 
%Mem=4GB  
%Chk=H2O_H2O_4877.chk 

#p CCSD(T)/cc-pVTZ 

H2O_H2O_4877

0 1
O             -0.000000         -0.009833          0.000000
H             -0.799571         -0.580965          0.000000
H              0.799571         -0.580965          0.000000
O             -4.826704         -3.456536          0.000000
H             -5.693982         -3.918416          0.000000
H             -4.108521         -4.127146          0.000000

