%NProcShared=4 
%Mem=4GB  
%Chk=H2O_H2O_4681.chk 

#p CCSD(T)/cc-pVTZ 

H2O_H2O_4681

0 1
O             -0.000000         -0.009833          0.000000
H             -0.799571         -0.580965          0.000000
H              0.799571         -0.580965          0.000000
O             -4.699352         -3.363133          0.000000
H             -5.656622         -3.584807          0.000000
H             -4.179207         -4.196773          0.000000

