%NProcShared=4 
%Mem=4GB  
%Chk=H2O_H2O_3626.chk 

#p CCSD(T)/cc-pVTZ 

H2O_H2O_3626

0 1
O             -0.000000         -0.009833          0.000000
H             -0.799571         -0.580965          0.000000
H              0.799571         -0.580965          0.000000
O             -4.014618         -2.876985          0.000000
H             -4.849832         -3.394600          0.000000
H             -3.254113         -3.499189          0.000000

