%NProcShared=4 
%Mem=4GB  
%Chk=H2O_H2O_4473.chk 

#p CCSD(T)/cc-pVTZ 

H2O_H2O_4473

0 1
O             -0.000000         -0.009833          0.000000
H             -0.799571         -0.580965          0.000000
H              0.799571         -0.580965          0.000000
O             -4.559341         -3.250361          0.000000
H             -5.181544         -2.489855          0.000000
H             -5.076956         -4.085574          0.000000

