%NProcShared=4 
%Mem=4GB  
%Chk=H2O_H2O_2303.chk 

#p CCSD(T)/cc-pVTZ 

H2O_H2O_2303

0 1
O             -0.000000         -0.009833          0.000000
H             -0.799571         -0.580965          0.000000
H              0.799571         -0.580965          0.000000
O             -3.155762         -2.262427          0.000000
H             -4.051392         -2.666596          0.000000
H             -2.482977         -2.978574          0.000000

