%NProcShared=4 
%Mem=4GB  
%Chk=H2O_H2O_1064.chk 

#p CCSD(T)/cc-pVTZ 

H2O_H2O_1064

0 1
O             -0.000000         -0.009833          0.000000
H             -0.799571         -0.580965          0.000000
H              0.799571         -0.580965          0.000000
O             -2.350200         -1.679156          0.000000
H             -3.290057         -1.392497          0.000000
H             -2.316561         -2.661182          0.000000

