%NProcShared=4 
%Mem=4GB  
%Chk=H2O_H2O_4219.chk 

#p CCSD(T)/cc-pVTZ 

H2O_H2O_4219

0 1
O             -0.000000         -0.009833          0.000000
H             -0.799571         -0.580965          0.000000
H              0.799571         -0.580965          0.000000
O             -4.396551         -3.136956          0.000000
H             -5.194387         -2.563402          0.000000
H             -4.680359         -4.077679          0.000000

