%NProcShared=4 
%Mem=4GB  
%Chk=H2O_H2O_928.chk 

#p CCSD(T)/cc-pVTZ 

H2O_H2O_928

0 1
O             -0.000000         -0.009833          0.000000
H             -0.799571         -0.580965          0.000000
H              0.799571         -0.580965          0.000000
O             -2.263172         -1.624853          0.000000
H             -3.158803         -2.029022          0.000000
H             -1.590387         -2.340999          0.000000

