%NProcShared=4 
%Mem=4GB  
%Chk=H2O_H2O_972.chk 

#p CCSD(T)/cc-pVTZ 

H2O_H2O_972

0 1
O             -0.000000         -0.009833          0.000000
H             -0.799571         -0.580965          0.000000
H              0.799571         -0.580965          0.000000
O             -2.287232         -1.628084          0.000000
H             -2.957843         -0.909901          0.000000
H             -2.749113         -2.495363          0.000000

