%NProcShared=4 
%Mem=4GB  
%Chk=H2O_H2O_1914.chk 

#p CCSD(T)/cc-pVTZ 

H2O_H2O_1914

0 1
O             -0.000000         -0.009833          0.000000
H             -0.799571         -0.580965          0.000000
H              0.799571         -0.580965          0.000000
O             -2.901982         -2.073293          0.000000
H             -3.841840         -1.786633          0.000000
H             -2.868344         -3.055319          0.000000

