%NProcShared=4 
%Mem=4GB  
%Chk=H2O_H2O_4345.chk 

#p CCSD(T)/cc-pVTZ 

H2O_H2O_4345

0 1
O             -0.000000         -0.009833          0.000000
H             -0.799571         -0.580965          0.000000
H              0.799571         -0.580965          0.000000
O             -4.477883         -3.194302          0.000000
H             -5.236498         -2.569795          0.000000
H             -4.822610         -4.114448          0.000000

