%NProcShared=4 
%Mem=4GB  
%Chk=H2O_H2O_2504.chk 

#p CCSD(T)/cc-pVTZ 

H2O_H2O_2504

0 1
O             -0.000000         -0.009833          0.000000
H             -0.799571         -0.580965          0.000000
H              0.799571         -0.580965          0.000000
O             -3.286220         -2.355020          0.000000
H             -4.206366         -2.699746          0.000000
H             -2.661713         -3.113635          0.000000

