%NProcShared=4 
%Mem=4GB  
%Chk=H2O_H2O_828.chk 

#p CCSD(T)/cc-pVTZ 

H2O_H2O_828

0 1
O             -0.000000         -0.009833          0.000000
H             -0.799571         -0.580965          0.000000
H              0.799571         -0.580965          0.000000
O             -2.198257         -1.578484          0.000000
H             -3.093887         -1.982653          0.000000
H             -1.525471         -2.294630          0.000000

