%NProcShared=4 
%Mem=4GB  
%Chk=H2O_H2O_3833.chk 

#p CCSD(T)/cc-pVTZ 

H2O_H2O_3833

0 1
O             -0.000000         -0.009833          0.000000
H             -0.799571         -0.580965          0.000000
H              0.799571         -0.580965          0.000000
O             -4.148723         -2.968427          0.000000
H             -5.126738         -3.063256          0.000000
H             -3.741840         -3.862828          0.000000

