%NProcShared=4 
%Mem=4GB  
%Chk=H2O_H2O_3568.chk 

#p CCSD(T)/cc-pVTZ 

H2O_H2O_3568

0 1
O             -0.000000         -0.009833          0.000000
H             -0.799571         -0.580965          0.000000
H              0.799571         -0.580965          0.000000
O             -3.974373         -2.836160          0.000000
H             -4.808013         -2.316015          0.000000
H             -4.196048         -3.793430          0.000000

