%NProcShared=4 
%Mem=4GB  
%Chk=H2O_H2O_2492.chk 

#p CCSD(T)/cc-pVTZ 

H2O_H2O_2492

0 1
O             -0.000000         -0.009833          0.000000
H             -0.799571         -0.580965          0.000000
H              0.799571         -0.580965          0.000000
O             -3.276265         -2.338278          0.000000
H             -4.142139         -1.873770          0.000000
H             -3.434856         -3.307997          0.000000

