%NProcShared=4 
%Mem=4GB  
%Chk=H2O_H2O_2165.chk 

#p CCSD(T)/cc-pVTZ 

H2O_H2O_2165

0 1
O             -0.000000         -0.009833          0.000000
H             -0.799571         -0.580965          0.000000
H              0.799571         -0.580965          0.000000
O             -3.064646         -2.188693          0.000000
H             -3.983743         -1.841177          0.000000
H             -3.095307         -3.170816          0.000000

