%NProcShared=4 
%Mem=4GB  
%Chk=H2O_H2O_4348.chk 

#p CCSD(T)/cc-pVTZ 

H2O_H2O_4348

0 1
O             -0.000000         -0.009833          0.000000
H             -0.799571         -0.580965          0.000000
H              0.799571         -0.580965          0.000000
O             -4.478197         -3.192400          0.000000
H             -5.100400         -2.431894          0.000000
H             -4.995811         -4.027613          0.000000

