%NProcShared=4 
%Mem=4GB  
%Chk=H2O_H2O_3990.chk 

#p CCSD(T)/cc-pVTZ 

H2O_H2O_3990

0 1
O             -0.000000         -0.009833          0.000000
H             -0.799571         -0.580965          0.000000
H              0.799571         -0.580965          0.000000
O             -4.249356         -3.034928          0.000000
H             -5.168453         -2.687412          0.000000
H             -4.280017         -4.017051          0.000000

