%NProcShared=4 
%Mem=4GB  
%Chk=H2O_H2O_414.chk 

#p CCSD(T)/cc-pVTZ 

H2O_H2O_414

0 1
O             -0.000000         -0.009833          0.000000
H             -0.799571         -0.580965          0.000000
H              0.799571         -0.580965          0.000000
O             -1.928248         -1.377757          0.000000
H             -2.868106         -1.091098          0.000000
H             -1.894610         -2.359783          0.000000

