%NProcShared=4 
%Mem=4GB  
%Chk=H2O_H2O_2664.chk 

#p CCSD(T)/cc-pVTZ 

H2O_H2O_2664

0 1
O             -0.000000         -0.009833          0.000000
H             -0.799571         -0.580965          0.000000
H              0.799571         -0.580965          0.000000
O             -3.388849         -2.421061          0.000000
H             -4.328707         -2.134401          0.000000
H             -3.355211         -3.403087          0.000000

