%NProcShared=4 
%Mem=4GB  
%Chk=H2O_H2O_4084.chk 

#p CCSD(T)/cc-pVTZ 

H2O_H2O_4084

0 1
O             -0.000000         -0.009833          0.000000
H             -0.799571         -0.580965          0.000000
H              0.799571         -0.580965          0.000000
O             -4.311558         -3.084010          0.000000
H             -5.293681         -3.114671          0.000000
H             -3.964043         -4.003107          0.000000

