%NProcShared=4 
%Mem=4GB  
%Chk=H2O_H2O_763.chk 

#p CCSD(T)/cc-pVTZ 

H2O_H2O_763

0 1
O             -0.000000         -0.009833          0.000000
H             -0.799571         -0.580965          0.000000
H              0.799571         -0.580965          0.000000
O             -2.155045         -1.540546          0.000000
H             -3.111639         -1.315970          0.000000
H             -2.057251         -2.518269          0.000000

