%NProcShared=4 
%Mem=4GB  
%Chk=H2O_H2O_2092.chk 

#p CCSD(T)/cc-pVTZ 

H2O_H2O_2092

0 1
O             -0.000000         -0.009833          0.000000
H             -0.799571         -0.580965          0.000000
H              0.799571         -0.580965          0.000000
O             -3.016603         -2.152802          0.000000
H             -3.882477         -1.688293          0.000000
H             -3.175194         -3.122521          0.000000

