%NProcShared=4 
%Mem=4GB  
%Chk=H2O_H2O_4618.chk 

#p CCSD(T)/cc-pVTZ 

H2O_H2O_4618

0 1
O             -0.000000         -0.009833          0.000000
H             -0.799571         -0.580965          0.000000
H              0.799571         -0.580965          0.000000
O             -4.655987         -3.323035          0.000000
H             -5.489627         -2.802890          0.000000
H             -4.877662         -4.280305          0.000000

