%NProcShared=4 
%Mem=4GB  
%Chk=H2O_H2O_3449.chk 

#p CCSD(T)/cc-pVTZ 

H2O_H2O_3449

0 1
O             -0.000000         -0.009833          0.000000
H             -0.799571         -0.580965          0.000000
H              0.799571         -0.580965          0.000000
O             -3.893977         -2.774435          0.000000
H             -4.465109         -1.974864          0.000000
H             -4.465109         -3.574006          0.000000

