%NProcShared=4 
%Mem=4GB  
%Chk=H2O_H2O_1372.chk 

#p CCSD(T)/cc-pVTZ 

H2O_H2O_1372

0 1
O             -0.000000         -0.009833          0.000000
H             -0.799571         -0.580965          0.000000
H              0.799571         -0.580965          0.000000
O             -2.546894         -1.813561          0.000000
H             -3.217505         -1.095377          0.000000
H             -3.008775         -2.680839          0.000000

