%NProcShared=4 
%Mem=4GB  
%Chk=H2O_H2O_3041.chk 

#p CCSD(T)/cc-pVTZ 

H2O_H2O_3041

0 1
O             -0.000000         -0.009833          0.000000
H             -0.799571         -0.580965          0.000000
H              0.799571         -0.580965          0.000000
O             -3.632997         -2.593875          0.000000
H             -4.527398         -2.186992          0.000000
H             -3.727826         -3.571891          0.000000

