%NProcShared=4 
%Mem=4GB  
%Chk=H2O_H2O_3863.chk 

#p CCSD(T)/cc-pVTZ 

H2O_H2O_3863

0 1
O             -0.000000         -0.009833          0.000000
H             -0.799571         -0.580965          0.000000
H              0.799571         -0.580965          0.000000
O             -4.167428         -2.977987          0.000000
H             -5.124022         -2.753411          0.000000
H             -4.069634         -3.955710          0.000000

