%NProcShared=4 
%Mem=4GB  
%Chk=H2O_H2O_4270.chk 

#p CCSD(T)/cc-pVTZ 

H2O_H2O_4270

0 1
O             -0.000000         -0.009833          0.000000
H             -0.799571         -0.580965          0.000000
H              0.799571         -0.580965          0.000000
O             -4.429196         -3.159525          0.000000
H             -5.187811         -2.535018          0.000000
H             -4.773923         -4.079671          0.000000

