%NProcShared=4 
%Mem=4GB  
%Chk=H2O_H2O_1277.chk 

#p CCSD(T)/cc-pVTZ 

H2O_H2O_1277

0 1
O             -0.000000         -0.009833          0.000000
H             -0.799571         -0.580965          0.000000
H              0.799571         -0.580965          0.000000
O             -2.489742         -1.787249          0.000000
H             -3.357021         -2.249130          0.000000
H             -1.771559         -2.457860          0.000000

