%NProcShared=4 
%Mem=4GB  
%Chk=H2O_H2O_4010.chk 

#p CCSD(T)/cc-pVTZ 

H2O_H2O_4010

0 1
O             -0.000000         -0.009833          0.000000
H             -0.799571         -0.580965          0.000000
H              0.799571         -0.580965          0.000000
O             -4.263395         -3.048858          0.000000
H             -5.245421         -3.015220          0.000000
H             -3.976735         -3.988716          0.000000

