%NProcShared=4 
%Mem=4GB  
%Chk=H2O_H2O_565.chk 

#p CCSD(T)/cc-pVTZ 

H2O_H2O_565

0 1
O             -0.000000         -0.009833          0.000000
H             -0.799571         -0.580965          0.000000
H              0.799571         -0.580965          0.000000
O             -2.025997         -1.446788          0.000000
H             -2.945094         -1.099272          0.000000
H             -2.056657         -2.428911          0.000000

