%NProcShared=4 
%Mem=4GB  
%Chk=H2O_H2O_1106.chk 

#p CCSD(T)/cc-pVTZ 

H2O_H2O_1106

0 1
O             -0.000000         -0.009833          0.000000
H             -0.799571         -0.580965          0.000000
H              0.799571         -0.580965          0.000000
O             -2.378619         -1.705439          0.000000
H             -3.335890         -1.927114          0.000000
H             -1.858475         -2.539079          0.000000

