%NProcShared=4 
%Mem=4GB  
%Chk=H2O_H2O_607.chk 

#p CCSD(T)/cc-pVTZ 

H2O_H2O_607

0 1
O             -0.000000         -0.009833          0.000000
H             -0.799571         -0.580965          0.000000
H              0.799571         -0.580965          0.000000
O             -2.054628         -1.473328          0.000000
H             -3.024347         -1.631920          0.000000
H             -1.590119         -2.339202          0.000000

