%NProcShared=4 
%Mem=4GB  
%Chk=H2O_H2O_330.chk 

#p CCSD(T)/cc-pVTZ 

H2O_H2O_330

0 1
O             -0.000000         -0.009833          0.000000
H             -0.799571         -0.580965          0.000000
H              0.799571         -0.580965          0.000000
O             -1.874921         -1.346306          0.000000
H             -2.815644         -1.630114          0.000000
H             -1.301367         -2.144141          0.000000

