%NProcShared=4 
%Mem=4GB  
%Chk=H2O_H2O_1636.chk 

#p CCSD(T)/cc-pVTZ 

H2O_H2O_1636

0 1
O             -0.000000         -0.009833          0.000000
H             -0.799571         -0.580965          0.000000
H              0.799571         -0.580965          0.000000
O             -2.722147         -1.947185          0.000000
H             -3.699870         -1.849391          0.000000
H             -2.497571         -2.903779          0.000000

