%NProcShared=4 
%Mem=4GB  
%Chk=H2O_H2O_668.chk 

#p CCSD(T)/cc-pVTZ 

H2O_H2O_668

0 1
O             -0.000000         -0.009833          0.000000
H             -0.799571         -0.580965          0.000000
H              0.799571         -0.580965          0.000000
O             -2.091821         -1.491457          0.000000
H             -2.925461         -0.971312          0.000000
H             -2.313495         -2.448727          0.000000

