%NProcShared=4 
%Mem=4GB  
%Chk=H2O_H2O_2712.chk 

#p CCSD(T)/cc-pVTZ 

H2O_H2O_2712

0 1
O             -0.000000         -0.009833          0.000000
H             -0.799571         -0.580965          0.000000
H              0.799571         -0.580965          0.000000
O             -3.420459         -2.445213          0.000000
H             -4.389693         -2.283681          0.000000
H             -3.258928         -3.414446          0.000000

