%NProcShared=4 
%Mem=4GB  
%Chk=H2O_H2O_2086.chk 

#p CCSD(T)/cc-pVTZ 

H2O_H2O_2086

0 1
O             -0.000000         -0.009833          0.000000
H             -0.799571         -0.580965          0.000000
H              0.799571         -0.580965          0.000000
O             -3.014267         -2.155846          0.000000
H             -3.991990         -2.058052          0.000000
H             -2.789691         -3.112440          0.000000

