%NProcShared=4 
%Mem=4GB  
%Chk=H2O_H2O_2684.chk 

#p CCSD(T)/cc-pVTZ 

H2O_H2O_2684

0 1
O             -0.000000         -0.009833          0.000000
H             -0.799571         -0.580965          0.000000
H              0.799571         -0.580965          0.000000
O             -3.402740         -2.434843          0.000000
H             -4.384863         -2.465504          0.000000
H             -3.055225         -3.353940          0.000000

