%NProcShared=4 
%Mem=4GB  
%Chk=H2O_H2O_3765.chk 

#p CCSD(T)/cc-pVTZ 

H2O_H2O_3765

0 1
O             -0.000000         -0.009833          0.000000
H             -0.799571         -0.580965          0.000000
H              0.799571         -0.580965          0.000000
O             -4.103296         -2.930598          0.000000
H             -5.022393         -2.583082          0.000000
H             -4.133956         -3.912721          0.000000

