%NProcShared=4 
%Mem=4GB  
%Chk=H2O_H2O_3140.chk 

#p CCSD(T)/cc-pVTZ 

H2O_H2O_3140

0 1
O             -0.000000         -0.009833          0.000000
H             -0.799571         -0.580965          0.000000
H              0.799571         -0.580965          0.000000
O             -3.697573         -2.640791          0.000000
H             -4.616670         -2.293276          0.000000
H             -3.728234         -3.622914          0.000000

