%NProcShared=4 
%Mem=4GB  
%Chk=H2O_H2O_2409.chk 

#p CCSD(T)/cc-pVTZ 

H2O_H2O_2409

0 1
O             -0.000000         -0.009833          0.000000
H             -0.799571         -0.580965          0.000000
H              0.799571         -0.580965          0.000000
O             -3.224222         -2.307328          0.000000
H             -4.206345         -2.337989          0.000000
H             -2.876707         -3.226425          0.000000

