%NProcShared=4 
%Mem=4GB  
%Chk=H2O_H2O_1713.chk 

#p CCSD(T)/cc-pVTZ 

H2O_H2O_1713

0 1
O             -0.000000         -0.009833          0.000000
H             -0.799571         -0.580965          0.000000
H              0.799571         -0.580965          0.000000
O             -2.771743         -1.981052          0.000000
H             -3.728337         -1.756476          0.000000
H             -2.673949         -2.958775          0.000000

