%NProcShared=4 
%Mem=4GB  
%Chk=H2O_H2O_1251.chk 

#p CCSD(T)/cc-pVTZ 

H2O_H2O_1251

0 1
O             -0.000000         -0.009833          0.000000
H             -0.799571         -0.580965          0.000000
H              0.799571         -0.580965          0.000000
O             -2.472873         -1.775720          0.000000
H             -3.308086         -2.293335          0.000000
H             -1.712367         -2.397924          0.000000

