%NProcShared=4 
%Mem=4GB  
%Chk=H2O_H2O_1451.chk 

#p CCSD(T)/cc-pVTZ 

H2O_H2O_1451

0 1
O             -0.000000         -0.009833          0.000000
H             -0.799571         -0.580965          0.000000
H              0.799571         -0.580965          0.000000
O             -2.602704         -1.868458          0.000000
H             -3.437918         -2.386073          0.000000
H             -1.842199         -2.490662          0.000000

