%NProcShared=4 
%Mem=4GB  
%Chk=H2O_H2O_72.chk 

#p CCSD(T)/cc-pVTZ 

H2O_H2O_72

0 1
O             -0.000000         -0.009833          0.000000
H             -0.799571         -0.580965          0.000000
H              0.799571         -0.580965          0.000000
O             -1.702992         -1.210763          0.000000
H             -2.373603         -0.492580          0.000000
H             -2.164873         -2.078041          0.000000

