%NProcShared=4 
%Mem=4GB  
%Chk=H2O_H2O_615.chk 

#p CCSD(T)/cc-pVTZ 

H2O_H2O_615

0 1
O             -0.000000         -0.009833          0.000000
H             -0.799571         -0.580965          0.000000
H              0.799571         -0.580965          0.000000
O             -2.058454         -1.469972          0.000000
H             -2.977551         -1.122457          0.000000
H             -2.089115         -2.452095          0.000000

