%NProcShared=4 
%Mem=4GB  
%Chk=H2O_H2O_2763.chk 

#p CCSD(T)/cc-pVTZ 

H2O_H2O_2763

0 1
O             -0.000000         -0.009833          0.000000
H             -0.799571         -0.580965          0.000000
H              0.799571         -0.580965          0.000000
O             -3.453357         -2.467927          0.000000
H             -4.409950         -2.243351          0.000000
H             -3.355562         -3.445650          0.000000

