%NProcShared=4 
%Mem=4GB  
%Chk=H2O_H2O_669.chk 

#p CCSD(T)/cc-pVTZ 

H2O_H2O_669

0 1
O             -0.000000         -0.009833          0.000000
H             -0.799571         -0.580965          0.000000
H              0.799571         -0.580965          0.000000
O             -2.092048         -1.490854          0.000000
H             -2.889884         -0.917301          0.000000
H             -2.375856         -2.431577          0.000000

