%NProcShared=4 
%Mem=4GB  
%Chk=H2O_H2O_4946.chk 

#p CCSD(T)/cc-pVTZ 

H2O_H2O_4946

0 1
O             -0.000000         -0.009833          0.000000
H             -0.799571         -0.580965          0.000000
H              0.799571         -0.580965          0.000000
O             -4.867522         -3.471889          0.000000
H             -5.583668         -2.799104          0.000000
H             -5.271691         -4.367520          0.000000

