%NProcShared=4 
%Mem=4GB  
%Chk=H2O_H2O_2732.chk 

#p CCSD(T)/cc-pVTZ 

H2O_H2O_2732

0 1
O             -0.000000         -0.009833          0.000000
H             -0.799571         -0.580965          0.000000
H              0.799571         -0.580965          0.000000
O             -3.434084         -2.458671          0.000000
H             -4.403803         -2.617262          0.000000
H             -2.969575         -3.324545          0.000000

