%NProcShared=4 
%Mem=4GB  
%Chk=H2O_H2O_3768.chk 

#p CCSD(T)/cc-pVTZ 

H2O_H2O_3768

0 1
O             -0.000000         -0.009833          0.000000
H             -0.799571         -0.580965          0.000000
H              0.799571         -0.580965          0.000000
O             -4.104204         -2.928898          0.000000
H             -4.937844         -2.408753          0.000000
H             -4.325879         -3.886168          0.000000

