%NProcShared=4 
%Mem=4GB  
%Chk=H2O_H2O_4122.chk 

#p CCSD(T)/cc-pVTZ 

H2O_H2O_4122

0 1
O             -0.000000         -0.009833          0.000000
H             -0.799571         -0.580965          0.000000
H              0.799571         -0.580965          0.000000
O             -4.332073         -3.088710          0.000000
H             -5.002684         -2.370527          0.000000
H             -4.793954         -3.955988          0.000000

