%NProcShared=4 
%Mem=4GB  
%Chk=H2O_H2O_1072.chk 

#p CCSD(T)/cc-pVTZ 

H2O_H2O_1072

0 1
O             -0.000000         -0.009833          0.000000
H             -0.799571         -0.580965          0.000000
H              0.799571         -0.580965          0.000000
O             -2.352148         -1.674453          0.000000
H             -3.022758         -0.956270          0.000000
H             -2.814028         -2.541732          0.000000

