%NProcShared=4 
%Mem=4GB  
%Chk=H2O_H2O_4099.chk 

#p CCSD(T)/cc-pVTZ 

H2O_H2O_4099

0 1
O             -0.000000         -0.009833          0.000000
H             -0.799571         -0.580965          0.000000
H              0.799571         -0.580965          0.000000
O             -4.315928         -3.075834          0.000000
H             -4.887060         -2.276263          0.000000
H             -4.887060         -3.875405          0.000000

