%NProcShared=4 
%Mem=4GB  
%Chk=H2O_H2O_4207.chk 

#p CCSD(T)/cc-pVTZ 

H2O_H2O_4207

0 1
O             -0.000000         -0.009833          0.000000
H             -0.799571         -0.580965          0.000000
H              0.799571         -0.580965          0.000000
O             -4.391589         -3.142614          0.000000
H             -5.361308         -3.301206          0.000000
H             -3.927080         -4.008488          0.000000

