%NProcShared=4 
%Mem=4GB  
%Chk=H2O_H2O_3559.chk 

#p CCSD(T)/cc-pVTZ 

H2O_H2O_3559

0 1
O             -0.000000         -0.009833          0.000000
H             -0.799571         -0.580965          0.000000
H              0.799571         -0.580965          0.000000
O             -3.970752         -2.840573          0.000000
H             -4.952875         -2.871233          0.000000
H             -3.623236         -3.759669          0.000000

