%NProcShared=4 
%Mem=4GB  
%Chk=H2O_H2O_3440.chk 

#p CCSD(T)/cc-pVTZ 

H2O_H2O_3440

0 1
O             -0.000000         -0.009833          0.000000
H             -0.799571         -0.580965          0.000000
H              0.799571         -0.580965          0.000000
O             -3.892320         -2.779898          0.000000
H             -4.811417         -2.432383          0.000000
H             -3.922981         -3.762021          0.000000

