%NProcShared=4 
%Mem=4GB  
%Chk=H2O_H2O_1084.chk 

#p CCSD(T)/cc-pVTZ 

H2O_H2O_1084

0 1
O             -0.000000         -0.009833          0.000000
H             -0.799571         -0.580965          0.000000
H              0.799571         -0.580965          0.000000
O             -2.364091         -1.692938          0.000000
H             -3.346214         -1.723599          0.000000
H             -2.016575         -2.612035          0.000000

