%NProcShared=4 
%Mem=4GB  
%Chk=H2O_H2O_493.chk 

#p CCSD(T)/cc-pVTZ 

H2O_H2O_493

0 1
O             -0.000000         -0.009833          0.000000
H             -0.799571         -0.580965          0.000000
H              0.799571         -0.580965          0.000000
O             -1.978219         -1.410311          0.000000
H             -2.811859         -0.890166          0.000000
H             -2.199893         -2.367581          0.000000

