%NProcShared=4 
%Mem=4GB  
%Chk=H2O_H2O_1840.chk 

#p CCSD(T)/cc-pVTZ 

H2O_H2O_1840

0 1
O             -0.000000         -0.009833          0.000000
H             -0.799571         -0.580965          0.000000
H              0.799571         -0.580965          0.000000
O             -2.853671         -2.037993          0.000000
H             -3.772767         -1.690478          0.000000
H             -2.884331         -3.020116          0.000000

