%NProcShared=4 
%Mem=4GB  
%Chk=H2O_H2O_2141.chk 

#p CCSD(T)/cc-pVTZ 

H2O_H2O_2141

0 1
O             -0.000000         -0.009833          0.000000
H             -0.799571         -0.580965          0.000000
H              0.799571         -0.580965          0.000000
O             -3.048757         -2.176554          0.000000
H             -3.943158         -1.769671          0.000000
H             -3.143586         -3.154569          0.000000

