%NProcShared=4 
%Mem=4GB  
%Chk=H2O_H2O_2380.chk 

#p CCSD(T)/cc-pVTZ 

H2O_H2O_2380

0 1
O             -0.000000         -0.009833          0.000000
H             -0.799571         -0.580965          0.000000
H              0.799571         -0.580965          0.000000
O             -3.205691         -2.296871          0.000000
H             -4.146414         -2.580679          0.000000
H             -2.632137         -3.094707          0.000000

