%NProcShared=4 
%Mem=4GB  
%Chk=H2O_H2O_2619.chk 

#p CCSD(T)/cc-pVTZ 

H2O_H2O_2619

0 1
O             -0.000000         -0.009833          0.000000
H             -0.799571         -0.580965          0.000000
H              0.799571         -0.580965          0.000000
O             -3.357902         -2.395051          0.000000
H             -4.155737         -1.821497          0.000000
H             -3.641710         -3.335774          0.000000

