%NProcShared=4 
%Mem=4GB  
%Chk=H2O_H2O_4570.chk 

#p CCSD(T)/cc-pVTZ 

H2O_H2O_4570

0 1
O             -0.000000         -0.009833          0.000000
H             -0.799571         -0.580965          0.000000
H              0.799571         -0.580965          0.000000
O             -4.623943         -3.298632          0.000000
H             -5.382558         -2.674125          0.000000
H             -4.968669         -4.218778          0.000000

