%NProcShared=4 
%Mem=4GB  
%Chk=H2O_H2O_4413.chk 

#p CCSD(T)/cc-pVTZ 

H2O_H2O_4413

0 1
O             -0.000000         -0.009833          0.000000
H             -0.799571         -0.580965          0.000000
H              0.799571         -0.580965          0.000000
O             -4.524464         -3.233017          0.000000
H             -5.481058         -3.008441          0.000000
H             -4.426670         -4.210740          0.000000

