%NProcShared=4 
%Mem=4GB  
%Chk=H2O_H2O_1465.chk 

#p CCSD(T)/cc-pVTZ 

H2O_H2O_1465

0 1
O             -0.000000         -0.009833          0.000000
H             -0.799571         -0.580965          0.000000
H              0.799571         -0.580965          0.000000
O             -2.610237         -1.864109          0.000000
H             -3.529334         -1.516594          0.000000
H             -2.640898         -2.846232          0.000000

