%NProcShared=4 
%Mem=4GB  
%Chk=H2O_H2O_818.chk 

#p CCSD(T)/cc-pVTZ 

H2O_H2O_818

0 1
O             -0.000000         -0.009833          0.000000
H             -0.799571         -0.580965          0.000000
H              0.799571         -0.580965          0.000000
O             -2.189194         -1.561010          0.000000
H             -3.022834         -1.040865          0.000000
H             -2.410869         -2.518281          0.000000

