%NProcShared=4 
%Mem=4GB  
%Chk=H2O_H2O_1235.chk 

#p CCSD(T)/cc-pVTZ 

H2O_H2O_1235

0 1
O             -0.000000         -0.009833          0.000000
H             -0.799571         -0.580965          0.000000
H              0.799571         -0.580965          0.000000
O             -2.461987         -1.762117          0.000000
H             -3.444013         -1.728478          0.000000
H             -2.175327         -2.701975          0.000000

