%NProcShared=4 
%Mem=4GB  
%Chk=H2O_H2O_1212.chk 

#p CCSD(T)/cc-pVTZ 

H2O_H2O_1212

0 1
O             -0.000000         -0.009833          0.000000
H             -0.799571         -0.580965          0.000000
H              0.799571         -0.580965          0.000000
O             -2.446725         -1.749677          0.000000
H             -3.415959         -1.588146          0.000000
H             -2.285194         -2.718910          0.000000

