%NProcShared=4 
%Mem=4GB  
%Chk=H2O_H2O_1185.chk 

#p CCSD(T)/cc-pVTZ 

H2O_H2O_1185

0 1
O             -0.000000         -0.009833          0.000000
H             -0.799571         -0.580965          0.000000
H              0.799571         -0.580965          0.000000
O             -2.429529         -1.738932          0.000000
H             -3.411555         -1.705294          0.000000
H             -2.142870         -2.678790          0.000000

