%NProcShared=4 
%Mem=4GB  
%Chk=H2O_H2O_4612.chk 

#p CCSD(T)/cc-pVTZ 

H2O_H2O_4612

0 1
O             -0.000000         -0.009833          0.000000
H             -0.799571         -0.580965          0.000000
H              0.799571         -0.580965          0.000000
O             -4.653856         -3.326225          0.000000
H             -5.623089         -3.164694          0.000000
H             -4.492325         -4.295458          0.000000

