%NProcShared=4 
%Mem=4GB  
%Chk=H2O_H2O_61.chk 

#p CCSD(T)/cc-pVTZ 

H2O_H2O_61

0 1
O             -0.000000         -0.009833          0.000000
H             -0.799571         -0.580965          0.000000
H              0.799571         -0.580965          0.000000
O             -1.699726         -1.216872          0.000000
H             -2.677449         -1.119078          0.000000
H             -1.475150         -2.173466          0.000000

