%NProcShared=4 
%Mem=4GB  
%Chk=H2O_H2O_1545.chk 

#p CCSD(T)/cc-pVTZ 

H2O_H2O_1545

0 1
O             -0.000000         -0.009833          0.000000
H             -0.799571         -0.580965          0.000000
H              0.799571         -0.580965          0.000000
O             -2.660246         -1.895968          0.000000
H             -3.418861         -1.271461          0.000000
H             -3.004973         -2.816114          0.000000

