%NProcShared=4 
%Mem=4GB  
%Chk=H2O_H2O_4351.chk 

#p CCSD(T)/cc-pVTZ 

H2O_H2O_4351

0 1
O             -0.000000         -0.009833          0.000000
H             -0.799571         -0.580965          0.000000
H              0.799571         -0.580965          0.000000
O             -4.485256         -3.213161          0.000000
H             -5.320469         -3.730776          0.000000
H             -3.724751         -3.835365          0.000000

