%NProcShared=4 
%Mem=4GB  
%Chk=H2O_H2O_4003.chk 

#p CCSD(T)/cc-pVTZ 

H2O_H2O_4003

0 1
O             -0.000000         -0.009833          0.000000
H             -0.799571         -0.580965          0.000000
H              0.799571         -0.580965          0.000000
O             -4.259327         -3.050701          0.000000
H             -5.154957         -3.454871          0.000000
H             -3.586542         -3.766848          0.000000

