%NProcShared=4 
%Mem=4GB  
%Chk=H2O_H2O_4644.chk 

#p CCSD(T)/cc-pVTZ 

H2O_H2O_4644

0 1
O             -0.000000         -0.009833          0.000000
H             -0.799571         -0.580965          0.000000
H              0.799571         -0.580965          0.000000
O             -4.672442         -3.334025          0.000000
H             -5.470278         -2.760471          0.000000
H             -4.956251         -4.274747          0.000000

