%NProcShared=4 
%Mem=4GB  
%Chk=H2O_H2O_4841.chk 

#p CCSD(T)/cc-pVTZ 

H2O_H2O_4841

0 1
O             -0.000000         -0.009833          0.000000
H             -0.799571         -0.580965          0.000000
H              0.799571         -0.580965          0.000000
O             -4.801478         -3.428518          0.000000
H             -5.695879         -3.021635          0.000000
H             -4.896307         -4.406534          0.000000

