%NProcShared=4 
%Mem=4GB  
%Chk=H2O_H2O_2867.chk 

#p CCSD(T)/cc-pVTZ 

H2O_H2O_2867

0 1
O             -0.000000         -0.009833          0.000000
H             -0.799571         -0.580965          0.000000
H              0.799571         -0.580965          0.000000
O             -3.519699         -2.512162          0.000000
H             -4.385573         -2.047654          0.000000
H             -3.678290         -3.481881          0.000000

