%NProcShared=4 
%Mem=4GB  
%Chk=H2O_H2O_600.chk 

#p CCSD(T)/cc-pVTZ 

H2O_H2O_600

0 1
O             -0.000000         -0.009833          0.000000
H             -0.799571         -0.580965          0.000000
H              0.799571         -0.580965          0.000000
O             -2.050278         -1.474342          0.000000
H             -2.849850         -2.045474          0.000000
H             -1.250707         -2.045474          0.000000

