%NProcShared=4 
%Mem=4GB  
%Chk=H2O_H2O_1902.chk 

#p CCSD(T)/cc-pVTZ 

H2O_H2O_1902

0 1
O             -0.000000         -0.009833          0.000000
H             -0.799571         -0.580965          0.000000
H              0.799571         -0.580965          0.000000
O             -2.895465         -2.077056          0.000000
H             -3.762743         -2.538937          0.000000
H             -2.177281         -2.747667          0.000000

