%NProcShared=4 
%Mem=4GB  
%Chk=H2O_H2O_3052.chk 

#p CCSD(T)/cc-pVTZ 

H2O_H2O_3052

0 1
O             -0.000000         -0.009833          0.000000
H             -0.799571         -0.580965          0.000000
H              0.799571         -0.580965          0.000000
O             -3.641994         -2.610300          0.000000
H             -4.509273         -3.072181          0.000000
H             -2.923811         -3.280911          0.000000

