%NProcShared=4 
%Mem=4GB  
%Chk=H2O_H2O_3575.chk 

#p CCSD(T)/cc-pVTZ 

H2O_H2O_3575

0 1
O             -0.000000         -0.009833          0.000000
H             -0.799571         -0.580965          0.000000
H              0.799571         -0.580965          0.000000
O             -3.981517         -2.853822          0.000000
H             -4.781089         -3.424954          0.000000
H             -3.181946         -3.424954          0.000000

