%NProcShared=4 
%Mem=4GB  
%Chk=H2O_H2O_3136.chk 

#p CCSD(T)/cc-pVTZ 

H2O_H2O_3136

0 1
O             -0.000000         -0.009833          0.000000
H             -0.799571         -0.580965          0.000000
H              0.799571         -0.580965          0.000000
O             -3.695881         -2.642721          0.000000
H             -4.673604         -2.544927          0.000000
H             -3.471305         -3.599315          0.000000

