%NProcShared=4 
%Mem=4GB  
%Chk=H2O_H2O_1460.chk 

#p CCSD(T)/cc-pVTZ 

H2O_H2O_1460

0 1
O             -0.000000         -0.009833          0.000000
H             -0.799571         -0.580965          0.000000
H              0.799571         -0.580965          0.000000
O             -2.608047         -1.866447          0.000000
H             -3.590073         -1.832809          0.000000
H             -2.321388         -2.806305          0.000000

