%NProcShared=4 
%Mem=4GB  
%Chk=H2O_H2O_3004.chk 

#p CCSD(T)/cc-pVTZ 

H2O_H2O_3004

0 1
O             -0.000000         -0.009833          0.000000
H             -0.799571         -0.580965          0.000000
H              0.799571         -0.580965          0.000000
O             -3.610798         -2.586865          0.000000
H             -4.530944         -2.931591          0.000000
H             -2.986291         -3.345480          0.000000

