%NProcShared=4 
%Mem=4GB  
%Chk=H2O_H2O_2609.chk 

#p CCSD(T)/cc-pVTZ 

H2O_H2O_2609

0 1
O             -0.000000         -0.009833          0.000000
H             -0.799571         -0.580965          0.000000
H              0.799571         -0.580965          0.000000
O             -3.354053         -2.400066          0.000000
H             -4.336177         -2.430727          0.000000
H             -3.006538         -3.319163          0.000000

