%NProcShared=4 
%Mem=4GB  
%Chk=H2O_H2O_3835.chk 

#p CCSD(T)/cc-pVTZ 

H2O_H2O_3835

0 1
O             -0.000000         -0.009833          0.000000
H             -0.799571         -0.580965          0.000000
H              0.799571         -0.580965          0.000000
O             -4.149793         -2.967713          0.000000
H             -5.131818         -2.934074          0.000000
H             -3.863133         -3.907570          0.000000

