%NProcShared=4 
%Mem=4GB  
%Chk=H2O_H2O_3991.chk 

#p CCSD(T)/cc-pVTZ 

H2O_H2O_3991

0 1
O             -0.000000         -0.009833          0.000000
H             -0.799571         -0.580965          0.000000
H              0.799571         -0.580965          0.000000
O             -4.249696         -3.034381          0.000000
H             -5.144096         -2.627498          0.000000
H             -4.344525         -4.012396          0.000000

