%NProcShared=4 
%Mem=4GB  
%Chk=H2O_H2O_1635.chk 

#p CCSD(T)/cc-pVTZ 

H2O_H2O_1635

0 1
O             -0.000000         -0.009833          0.000000
H             -0.799571         -0.580965          0.000000
H              0.799571         -0.580965          0.000000
O             -2.721649         -1.947593          0.000000
H             -3.703675         -1.913954          0.000000
H             -2.434990         -2.887451          0.000000

