%NProcShared=4 
%Mem=4GB  
%Chk=H2O_H2O_821.chk 

#p CCSD(T)/cc-pVTZ 

H2O_H2O_821

0 1
O             -0.000000         -0.009833          0.000000
H             -0.799571         -0.580965          0.000000
H              0.799571         -0.580965          0.000000
O             -2.189754         -1.559166          0.000000
H             -2.905900         -0.886380          0.000000
H             -2.593923         -2.454796          0.000000

