%NProcShared=4 
%Mem=4GB  
%Chk=H2O_H2O_4494.chk 

#p CCSD(T)/cc-pVTZ 

H2O_H2O_4494

0 1
O             -0.000000         -0.009833          0.000000
H             -0.799571         -0.580965          0.000000
H              0.799571         -0.580965          0.000000
O             -4.575069         -3.264471          0.000000
H             -5.372905         -2.690917          0.000000
H             -4.858877         -4.205193          0.000000

