%NProcShared=4 
%Mem=4GB  
%Chk=H2O_H2O_1557.chk 

#p CCSD(T)/cc-pVTZ 

H2O_H2O_1557

0 1
O             -0.000000         -0.009833          0.000000
H             -0.799571         -0.580965          0.000000
H              0.799571         -0.580965          0.000000
O             -2.671326         -1.913834          0.000000
H             -3.641045         -2.072426          0.000000
H             -2.206817         -2.779708          0.000000

