%NProcShared=4 
%Mem=4GB  
%Chk=H2O_H2O_850.chk 

#p CCSD(T)/cc-pVTZ 

H2O_H2O_850

0 1
O             -0.000000         -0.009833          0.000000
H             -0.799571         -0.580965          0.000000
H              0.799571         -0.580965          0.000000
O             -2.212568         -1.590265          0.000000
H             -3.012139         -2.161397          0.000000
H             -1.412996         -2.161397          0.000000

