%NProcShared=4 
%Mem=4GB  
%Chk=H2O_H2O_3613.chk 

#p CCSD(T)/cc-pVTZ 

H2O_H2O_3613

0 1
O             -0.000000         -0.009833          0.000000
H             -0.799571         -0.580965          0.000000
H              0.799571         -0.580965          0.000000
O             -4.005139         -2.862064          0.000000
H             -4.961733         -2.637488          0.000000
H             -3.907345         -3.839788          0.000000

