%NProcShared=4 
%Mem=4GB  
%Chk=H2O_H2O_3550.chk 

#p CCSD(T)/cc-pVTZ 

H2O_H2O_3550

0 1
O             -0.000000         -0.009833          0.000000
H             -0.799571         -0.580965          0.000000
H              0.799571         -0.580965          0.000000
O             -3.965289         -2.842230          0.000000
H             -4.764860         -3.413362          0.000000
H             -3.165717         -3.413362          0.000000

