%NProcShared=4 
%Mem=4GB  
%Chk=H2O_H2O_4581.chk 

#p CCSD(T)/cc-pVTZ 

H2O_H2O_4581

0 1
O             -0.000000         -0.009833          0.000000
H             -0.799571         -0.580965          0.000000
H              0.799571         -0.580965          0.000000
O             -4.634437         -3.316764          0.000000
H             -5.591707         -3.538438          0.000000
H             -4.114292         -4.150404          0.000000

