%NProcShared=4 
%Mem=4GB  
%Chk=H2O_H2O_810.chk 

#p CCSD(T)/cc-pVTZ 

H2O_H2O_810

0 1
O             -0.000000         -0.009833          0.000000
H             -0.799571         -0.580965          0.000000
H              0.799571         -0.580965          0.000000
O             -2.186096         -1.565049          0.000000
H             -3.168121         -1.531410          0.000000
H             -1.899436         -2.504906          0.000000

