%NProcShared=4 
%Mem=4GB  
%Chk=H2O_H2O_3806.chk 

#p CCSD(T)/cc-pVTZ 

H2O_H2O_3806

0 1
O             -0.000000         -0.009833          0.000000
H             -0.799571         -0.580965          0.000000
H              0.799571         -0.580965          0.000000
O             -4.131341         -2.957404          0.000000
H             -5.088611         -3.179078          0.000000
H             -3.611196         -3.791044          0.000000

