%NProcShared=4 
%Mem=4GB  
%Chk=H2O_H2O_3238.chk 

#p CCSD(T)/cc-pVTZ 

H2O_H2O_3238

0 1
O             -0.000000         -0.009833          0.000000
H             -0.799571         -0.580965          0.000000
H              0.799571         -0.580965          0.000000
O             -3.761706         -2.688180          0.000000
H             -4.718300         -2.463604          0.000000
H             -3.663912         -3.665903          0.000000

