%NProcShared=4 
%Mem=4GB  
%Chk=H2O_H2O_1677.chk 

#p CCSD(T)/cc-pVTZ 

H2O_H2O_1677

0 1
O             -0.000000         -0.009833          0.000000
H             -0.799571         -0.580965          0.000000
H              0.799571         -0.580965          0.000000
O             -2.749405         -1.972726          0.000000
H             -3.616683         -2.434606          0.000000
H             -2.031221         -2.643337          0.000000

