%NProcShared=4 
%Mem=4GB  
%Chk=H2O_H2O_3272.chk 

#p CCSD(T)/cc-pVTZ 

H2O_H2O_3272

0 1
O             -0.000000         -0.009833          0.000000
H             -0.799571         -0.580965          0.000000
H              0.799571         -0.580965          0.000000
O             -3.780291         -2.694573          0.000000
H             -4.450902         -1.976390          0.000000
H             -4.242172         -3.561851          0.000000

