%NProcShared=4 
%Mem=4GB  
%Chk=H2O_H2O_2585.chk 

#p CCSD(T)/cc-pVTZ 

H2O_H2O_2585

0 1
O             -0.000000         -0.009833          0.000000
H             -0.799571         -0.580965          0.000000
H              0.799571         -0.580965          0.000000
O             -3.338348         -2.388099          0.000000
H             -4.320373         -2.354460          0.000000
H             -3.051688         -3.327957          0.000000

