%NProcShared=4 
%Mem=4GB  
%Chk=H2O_H2O_3791.chk 

#p CCSD(T)/cc-pVTZ 

H2O_H2O_3791

0 1
O             -0.000000         -0.009833          0.000000
H             -0.799571         -0.580965          0.000000
H              0.799571         -0.580965          0.000000
O             -4.119864         -2.941643          0.000000
H             -5.014265         -2.534760          0.000000
H             -4.214694         -3.919658          0.000000

