%NProcShared=4 
%Mem=4GB  
%Chk=H2O_H2O_3592.chk 

#p CCSD(T)/cc-pVTZ 

H2O_H2O_3592

0 1
O             -0.000000         -0.009833          0.000000
H             -0.799571         -0.580965          0.000000
H              0.799571         -0.580965          0.000000
O             -3.990336         -2.848338          0.000000
H             -4.856210         -2.383829          0.000000
H             -4.148928         -3.818057          0.000000

