%NProcShared=4 
%Mem=4GB  
%Chk=H2O_H2O_3360.chk 

#p CCSD(T)/cc-pVTZ 

H2O_H2O_3360

0 1
O             -0.000000         -0.009833          0.000000
H             -0.799571         -0.580965          0.000000
H              0.799571         -0.580965          0.000000
O             -3.841443         -2.747459          0.000000
H             -4.823469         -2.713821          0.000000
H             -3.554784         -3.687317          0.000000

