%NProcShared=4 
%Mem=4GB  
%Chk=H2O_H2O_107.chk 

#p CCSD(T)/cc-pVTZ 

H2O_H2O_107

0 1
O             -0.000000         -0.009833          0.000000
H             -0.799571         -0.580965          0.000000
H              0.799571         -0.580965          0.000000
O             -1.730050         -1.241483          0.000000
H             -2.699769         -1.400074          0.000000
H             -1.265541         -2.107357          0.000000

