%NProcShared=4 
%Mem=4GB  
%Chk=H2O_H2O_3805.chk 

#p CCSD(T)/cc-pVTZ 

H2O_H2O_3805

0 1
O             -0.000000         -0.009833          0.000000
H             -0.799571         -0.580965          0.000000
H              0.799571         -0.580965          0.000000
O             -4.130738         -2.957630          0.000000
H             -5.071461         -3.241439          0.000000
H             -3.557184         -3.755466          0.000000

