%NProcShared=4 
%Mem=4GB  
%Chk=H2O_H2O_1077.chk 

#p CCSD(T)/cc-pVTZ 

H2O_H2O_1077

0 1
O             -0.000000         -0.009833          0.000000
H             -0.799571         -0.580965          0.000000
H              0.799571         -0.580965          0.000000
O             -2.359911         -1.694511          0.000000
H             -3.227190         -2.156392          0.000000
H             -1.641728         -2.365122          0.000000

