%NProcShared=4 
%Mem=4GB  
%Chk=H2O_H2O_1474.chk 

#p CCSD(T)/cc-pVTZ 

H2O_H2O_1474

0 1
O             -0.000000         -0.009833          0.000000
H             -0.799571         -0.580965          0.000000
H              0.799571         -0.580965          0.000000
O             -2.611894         -1.858646          0.000000
H             -3.183026         -1.059075          0.000000
H             -3.183026         -2.658218          0.000000

