%NProcShared=4 
%Mem=4GB  
%Chk=H2O_H2O_4830.chk 

#p CCSD(T)/cc-pVTZ 

H2O_H2O_4830

0 1
O             -0.000000         -0.009833          0.000000
H             -0.799571         -0.580965          0.000000
H              0.799571         -0.580965          0.000000
O             -4.796123         -3.432913          0.000000
H             -5.736846         -3.716721          0.000000
H             -4.222569         -4.230749          0.000000

