%NProcShared=4 
%Mem=4GB  
%Chk=H2O_H2O_775.chk 

#p CCSD(T)/cc-pVTZ 

H2O_H2O_775

0 1
O             -0.000000         -0.009833          0.000000
H             -0.799571         -0.580965          0.000000
H              0.799571         -0.580965          0.000000
O             -2.163881         -1.555488          0.000000
H             -2.963452         -2.126620          0.000000
H             -1.364309         -2.126620          0.000000

