%NProcShared=4 
%Mem=4GB  
%Chk=H2O_H2O_1175.chk 

#p CCSD(T)/cc-pVTZ 

H2O_H2O_1175

0 1
O             -0.000000         -0.009833          0.000000
H             -0.799571         -0.580965          0.000000
H              0.799571         -0.580965          0.000000
O             -2.423543         -1.740964          0.000000
H             -3.223115         -2.312096          0.000000
H             -1.623972         -2.312096          0.000000

