%NProcShared=4 
%Mem=4GB  
%Chk=H2O_H2O_3625.chk 

#p CCSD(T)/cc-pVTZ 

H2O_H2O_3625

0 1
O             -0.000000         -0.009833          0.000000
H             -0.799571         -0.580965          0.000000
H              0.799571         -0.580965          0.000000
O             -4.013975         -2.877006          0.000000
H             -4.813547         -3.448138          0.000000
H             -3.214404         -3.448138          0.000000

