%NProcShared=4 
%Mem=4GB  
%Chk=H2O_H2O_4126.chk 

#p CCSD(T)/cc-pVTZ 

H2O_H2O_4126

0 1
O             -0.000000         -0.009833          0.000000
H             -0.799571         -0.580965          0.000000
H              0.799571         -0.580965          0.000000
O             -4.339196         -3.108831          0.000000
H             -5.174409         -3.626445          0.000000
H             -3.578691         -3.731034          0.000000

