%NProcShared=4 
%Mem=4GB  
%Chk=H2O_H2O_705.chk 

#p CCSD(T)/cc-pVTZ 

H2O_H2O_705

0 1
O             -0.000000         -0.009833          0.000000
H             -0.799571         -0.580965          0.000000
H              0.799571         -0.580965          0.000000
O             -2.118355         -1.520190          0.000000
H             -3.059077         -1.803998          0.000000
H             -1.544801         -2.318025          0.000000

