%NProcShared=4 
%Mem=4GB  
%Chk=H2O_H2O_1060.chk 

#p CCSD(T)/cc-pVTZ 

H2O_H2O_1060

0 1
O             -0.000000         -0.009833          0.000000
H             -0.799571         -0.580965          0.000000
H              0.799571         -0.580965          0.000000
O             -2.348385         -1.680971          0.000000
H             -3.330410         -1.647332          0.000000
H             -2.061725         -2.620829          0.000000

