%NProcShared=4 
%Mem=4GB  
%Chk=H2O_H2O_2724.chk 

#p CCSD(T)/cc-pVTZ 

H2O_H2O_2724

0 1
O             -0.000000         -0.009833          0.000000
H             -0.799571         -0.580965          0.000000
H              0.799571         -0.580965          0.000000
O             -3.423339         -2.438259          0.000000
H             -3.994471         -1.638688          0.000000
H             -3.994471         -3.237831          0.000000

