%NProcShared=4 
%Mem=4GB  
%Chk=H2O_H2O_436.chk 

#p CCSD(T)/cc-pVTZ 

H2O_H2O_436

0 1
O             -0.000000         -0.009833          0.000000
H             -0.799571         -0.580965          0.000000
H              0.799571         -0.580965          0.000000
O             -1.943160         -1.390756          0.000000
H             -2.920883         -1.292962          0.000000
H             -1.718584         -2.347350          0.000000

