%NProcShared=4 
%Mem=4GB  
%Chk=H2O_H2O_4286.chk 

#p CCSD(T)/cc-pVTZ 

H2O_H2O_4286

0 1
O             -0.000000         -0.009833          0.000000
H             -0.799571         -0.580965          0.000000
H              0.799571         -0.580965          0.000000
O             -4.442410         -3.175965          0.000000
H             -5.420133         -3.078171          0.000000
H             -4.217834         -4.132559          0.000000

