%NProcShared=4 
%Mem=4GB  
%Chk=H2O_H2O_3028.chk 

#p CCSD(T)/cc-pVTZ 

H2O_H2O_3028

0 1
O             -0.000000         -0.009833          0.000000
H             -0.799571         -0.580965          0.000000
H              0.799571         -0.580965          0.000000
O             -3.626400         -2.598603          0.000000
H             -4.522030         -3.002772          0.000000
H             -2.953614         -3.314750          0.000000

