%NProcShared=4 
%Mem=4GB  
%Chk=H2O_H2O_2683.chk 

#p CCSD(T)/cc-pVTZ 

H2O_H2O_2683

0 1
O             -0.000000         -0.009833          0.000000
H             -0.799571         -0.580965          0.000000
H              0.799571         -0.580965          0.000000
O             -3.402194         -2.435183          0.000000
H             -4.380209         -2.530012          0.000000
H             -2.995311         -3.329583          0.000000

