%NProcShared=4 
%Mem=4GB  
%Chk=H2O_H2O_3464.chk 

#p CCSD(T)/cc-pVTZ 

H2O_H2O_3464

0 1
O             -0.000000         -0.009833          0.000000
H             -0.799571         -0.580965          0.000000
H              0.799571         -0.580965          0.000000
O             -3.908174         -2.792013          0.000000
H             -4.848032         -2.505354          0.000000
H             -3.874535         -3.774039          0.000000

