%NProcShared=4 
%Mem=4GB  
%Chk=H2O_H2O_372.chk 

#p CCSD(T)/cc-pVTZ 

H2O_H2O_372

0 1
O             -0.000000         -0.009833          0.000000
H             -0.799571         -0.580965          0.000000
H              0.799571         -0.580965          0.000000
O             -1.897739         -1.349870          0.000000
H             -2.568349         -0.631687          0.000000
H             -2.359619         -2.217149          0.000000

