%NProcShared=4 
%Mem=4GB  
%Chk=H2O_H2O_4746.chk 

#p CCSD(T)/cc-pVTZ 

H2O_H2O_4746

0 1
O             -0.000000         -0.009833          0.000000
H             -0.799571         -0.580965          0.000000
H              0.799571         -0.580965          0.000000
O             -4.737691         -3.379151          0.000000
H             -5.453837         -2.706366          0.000000
H             -5.141860         -4.274781          0.000000

