%NProcShared=4 
%Mem=4GB  
%Chk=H2O_H2O_3477.chk 

#p CCSD(T)/cc-pVTZ 

H2O_H2O_3477

0 1
O             -0.000000         -0.009833          0.000000
H             -0.799571         -0.580965          0.000000
H              0.799571         -0.580965          0.000000
O             -3.917885         -2.807369          0.000000
H             -4.785164         -3.269250          0.000000
H             -3.199702         -3.477980          0.000000

