%NProcShared=4 
%Mem=4GB  
%Chk=H2O_H2O_4774.chk 

#p CCSD(T)/cc-pVTZ 

H2O_H2O_4774

0 1
O             -0.000000         -0.009833          0.000000
H             -0.799571         -0.580965          0.000000
H              0.799571         -0.580965          0.000000
O             -4.754109         -3.388825          0.000000
H             -5.325241         -2.589254          0.000000
H             -5.325241         -4.188396          0.000000

