%NProcShared=4 
%Mem=4GB  
%Chk=H2O_H2O_2112.chk 

#p CCSD(T)/cc-pVTZ 

H2O_H2O_2112

0 1
O             -0.000000         -0.009833          0.000000
H             -0.799571         -0.580965          0.000000
H              0.799571         -0.580965          0.000000
O             -3.030966         -2.166998          0.000000
H             -4.000199         -2.005467          0.000000
H             -2.869434         -3.136232          0.000000

