%NProcShared=4 
%Mem=4GB  
%Chk=H2O_H2O_1022.chk 

#p CCSD(T)/cc-pVTZ 

H2O_H2O_1022

0 1
O             -0.000000         -0.009833          0.000000
H             -0.799571         -0.580965          0.000000
H              0.799571         -0.580965          0.000000
O             -2.319690         -1.651269          0.000000
H             -2.990301         -0.933086          0.000000
H             -2.781571         -2.518548          0.000000

