%NProcShared=4 
%Mem=4GB  
%Chk=H2O_H2O_2080.chk 

#p CCSD(T)/cc-pVTZ 

H2O_H2O_2080

0 1
O             -0.000000         -0.009833          0.000000
H             -0.799571         -0.580965          0.000000
H              0.799571         -0.580965          0.000000
O             -3.010944         -2.157764          0.000000
H             -3.951667         -2.441572          0.000000
H             -2.437390         -2.955600          0.000000

