%NProcShared=4 
%Mem=4GB  
%Chk=H2O_H2O_3159.chk 

#p CCSD(T)/cc-pVTZ 

H2O_H2O_3159

0 1
O             -0.000000         -0.009833          0.000000
H             -0.799571         -0.580965          0.000000
H              0.799571         -0.580965          0.000000
O             -3.711089         -2.655096          0.000000
H             -4.693212         -2.685757          0.000000
H             -3.363574         -3.574193          0.000000

