%NProcShared=4 
%Mem=4GB  
%Chk=H2O_H2O_327.chk 

#p CCSD(T)/cc-pVTZ 

H2O_H2O_327

0 1
O             -0.000000         -0.009833          0.000000
H             -0.799571         -0.580965          0.000000
H              0.799571         -0.580965          0.000000
O             -1.873044         -1.346743          0.000000
H             -2.740323         -1.808624          0.000000
H             -1.154861         -2.017354          0.000000

