%NProcShared=4 
%Mem=4GB  
%Chk=H2O_H2O_2840.chk 

#p CCSD(T)/cc-pVTZ 

H2O_H2O_2840

0 1
O             -0.000000         -0.009833          0.000000
H             -0.799571         -0.580965          0.000000
H              0.799571         -0.580965          0.000000
O             -3.502827         -2.501684          0.000000
H             -4.421923         -2.154168          0.000000
H             -3.533487         -3.483807          0.000000

