%NProcShared=4 
%Mem=4GB  
%Chk=H2O_H2O_430.chk 

#p CCSD(T)/cc-pVTZ 

H2O_H2O_430

0 1
O             -0.000000         -0.009833          0.000000
H             -0.799571         -0.580965          0.000000
H              0.799571         -0.580965          0.000000
O             -1.939837         -1.392675          0.000000
H             -2.880560         -1.676483          0.000000
H             -1.366283         -2.190511          0.000000

