%NProcShared=4 
%Mem=4GB  
%Chk=H2O_H2O_221.chk 

#p CCSD(T)/cc-pVTZ 

H2O_H2O_221

0 1
O             -0.000000         -0.009833          0.000000
H             -0.799571         -0.580965          0.000000
H              0.799571         -0.580965          0.000000
O             -1.800260         -1.280951          0.000000
H             -2.516407         -0.608166          0.000000
H             -2.204429         -2.176581          0.000000

