%NProcShared=4 
%Mem=4GB  
%Chk=H2O_H2O_1913.chk 

#p CCSD(T)/cc-pVTZ 

H2O_H2O_1913

0 1
O             -0.000000         -0.009833          0.000000
H             -0.799571         -0.580965          0.000000
H              0.799571         -0.580965          0.000000
O             -2.901574         -2.073790          0.000000
H             -3.858168         -1.849214          0.000000
H             -2.803780         -3.051513          0.000000

