%NProcShared=4 
%Mem=4GB  
%Chk=H2O_H2O_4950.chk 

#p CCSD(T)/cc-pVTZ 

H2O_H2O_4950

0 1
O             -0.000000         -0.009833          0.000000
H             -0.799571         -0.580965          0.000000
H              0.799571         -0.580965          0.000000
O             -4.874107         -3.491397          0.000000
H             -5.673678         -4.062528          0.000000
H             -4.074535         -4.062528          0.000000

