%NProcShared=4 
%Mem=4GB  
%Chk=H2O_H2O_4256.chk 

#p CCSD(T)/cc-pVTZ 

H2O_H2O_4256

0 1
O             -0.000000         -0.009833          0.000000
H             -0.799571         -0.580965          0.000000
H              0.799571         -0.580965          0.000000
O             -4.423461         -3.166065          0.000000
H             -5.380731         -3.387739          0.000000
H             -3.903316         -3.999704          0.000000

