%NProcShared=4 
%Mem=4GB  
%Chk=H2O_H2O_725.chk 

#p CCSD(T)/cc-pVTZ 

H2O_H2O_725

0 1
O             -0.000000         -0.009833          0.000000
H             -0.799571         -0.580965          0.000000
H              0.799571         -0.580965          0.000000
O             -2.131423         -1.532304          0.000000
H             -2.930994         -2.103436          0.000000
H             -1.331852         -2.103436          0.000000

