%NProcShared=4 
%Mem=4GB  
%Chk=H2O_H2O_4399.chk 

#p CCSD(T)/cc-pVTZ 

H2O_H2O_4399

0 1
O             -0.000000         -0.009833          0.000000
H             -0.799571         -0.580965          0.000000
H              0.799571         -0.580965          0.000000
O             -4.510675         -3.214941          0.000000
H             -5.081807         -2.415370          0.000000
H             -5.081807         -4.014513          0.000000

