%NProcShared=4 
%Mem=4GB  
%Chk=H2O_H2O_344.chk 

#p CCSD(T)/cc-pVTZ 

H2O_H2O_344

0 1
O             -0.000000         -0.009833          0.000000
H             -0.799571         -0.580965          0.000000
H              0.799571         -0.580965          0.000000
O             -1.881072         -1.340155          0.000000
H             -2.678908         -0.766601          0.000000
H             -2.164880         -2.280878          0.000000

