%NProcShared=4 
%Mem=4GB  
%Chk=H2O_H2O_1403.chk 

#p CCSD(T)/cc-pVTZ 

H2O_H2O_1403

0 1
O             -0.000000         -0.009833          0.000000
H             -0.799571         -0.580965          0.000000
H              0.799571         -0.580965          0.000000
O             -2.571522         -1.845106          0.000000
H             -3.467152         -2.249275          0.000000
H             -1.898736         -2.561252          0.000000

