%NProcShared=4 
%Mem=4GB  
%Chk=H2O_H2O_881.chk 

#p CCSD(T)/cc-pVTZ 

H2O_H2O_881

0 1
O             -0.000000         -0.009833          0.000000
H             -0.799571         -0.580965          0.000000
H              0.799571         -0.580965          0.000000
O             -2.232559         -1.601109          0.000000
H             -3.189830         -1.822783          0.000000
H             -1.712415         -2.434749          0.000000

