%NProcShared=4 
%Mem=4GB  
%Chk=H2O_H2O_977.chk 

#p CCSD(T)/cc-pVTZ 

H2O_H2O_977

0 1
O             -0.000000         -0.009833          0.000000
H             -0.799571         -0.580965          0.000000
H              0.799571         -0.580965          0.000000
O             -2.294995         -1.648142          0.000000
H             -3.162274         -2.110023          0.000000
H             -1.576812         -2.318753          0.000000

