%NProcShared=4 
%Mem=4GB  
%Chk=H2O_H2O_561.chk 

#p CCSD(T)/cc-pVTZ 

H2O_H2O_561

0 1
O             -0.000000         -0.009833          0.000000
H             -0.799571         -0.580965          0.000000
H              0.799571         -0.580965          0.000000
O             -2.024304         -1.448718          0.000000
H             -3.002027         -1.350923          0.000000
H             -1.799728         -2.405311          0.000000

