%NProcShared=4 
%Mem=4GB  
%Chk=H2O_H2O_3645.chk 

#p CCSD(T)/cc-pVTZ 

H2O_H2O_3645

0 1
O             -0.000000         -0.009833          0.000000
H             -0.799571         -0.580965          0.000000
H              0.799571         -0.580965          0.000000
O             -4.023473         -2.869718          0.000000
H             -4.782089         -2.245211          0.000000
H             -4.368200         -3.789865          0.000000

