%NProcShared=4 
%Mem=4GB  
%Chk=H2O_H2O_3102.chk 

#p CCSD(T)/cc-pVTZ 

H2O_H2O_3102

0 1
O             -0.000000         -0.009833          0.000000
H             -0.799571         -0.580965          0.000000
H              0.799571         -0.580965          0.000000
O             -3.674452         -2.633485          0.000000
H             -4.541731         -3.095366          0.000000
H             -2.956269         -3.304096          0.000000

