%NProcShared=4 
%Mem=4GB  
%Chk=H2O_H2O_4023.chk 

#p CCSD(T)/cc-pVTZ 

H2O_H2O_4023

0 1
O             -0.000000         -0.009833          0.000000
H             -0.799571         -0.580965          0.000000
H              0.799571         -0.580965          0.000000
O             -4.267221         -3.041700          0.000000
H             -4.889425         -2.281195          0.000000
H             -4.784836         -3.876914          0.000000

