%NProcShared=4 
%Mem=4GB  
%Chk=H2O_H2O_2627.chk 

#p CCSD(T)/cc-pVTZ 

H2O_H2O_2627

0 1
O             -0.000000         -0.009833          0.000000
H             -0.799571         -0.580965          0.000000
H              0.799571         -0.580965          0.000000
O             -3.366103         -2.413232          0.000000
H             -4.233381         -2.875113          0.000000
H             -2.647919         -3.083843          0.000000

