%NProcShared=4 
%Mem=4GB  
%Chk=H2O_H2O_3512.chk 

#p CCSD(T)/cc-pVTZ 

H2O_H2O_3512

0 1
O             -0.000000         -0.009833          0.000000
H             -0.799571         -0.580965          0.000000
H              0.799571         -0.580965          0.000000
O             -3.939784         -2.816165          0.000000
H             -4.909017         -2.654634          0.000000
H             -3.778253         -3.785399          0.000000

