%NProcShared=4 
%Mem=4GB  
%Chk=H2O_H2O_24.chk 

#p CCSD(T)/cc-pVTZ 

H2O_H2O_24

0 1
O             -0.000000         -0.009833          0.000000
H             -0.799571         -0.580965          0.000000
H              0.799571         -0.580965          0.000000
O             -1.670618         -1.186295          0.000000
H             -2.241750         -0.386723          0.000000
H             -2.241750         -1.985866          0.000000

