%NProcShared=4 
%Mem=4GB  
%Chk=H2O_H2O_3972.chk 

#p CCSD(T)/cc-pVTZ 

H2O_H2O_3972

0 1
O             -0.000000         -0.009833          0.000000
H             -0.799571         -0.580965          0.000000
H              0.799571         -0.580965          0.000000
O             -4.234700         -3.019156          0.000000
H             -4.905311         -2.300973          0.000000
H             -4.696581         -3.886435          0.000000

