%NProcShared=4 
%Mem=4GB  
%Chk=H2O_H2O_293.chk 

#p CCSD(T)/cc-pVTZ 

H2O_H2O_293

0 1
O             -0.000000         -0.009833          0.000000
H             -0.799571         -0.580965          0.000000
H              0.799571         -0.580965          0.000000
O             -1.848387         -1.317573          0.000000
H             -2.682027         -0.797428          0.000000
H             -2.070062         -2.274843          0.000000

