%NProcShared=4 
%Mem=4GB  
%Chk=H2O_H2O_2750.chk 

#p CCSD(T)/cc-pVTZ 

H2O_H2O_2750

0 1
O             -0.000000         -0.009833          0.000000
H             -0.799571         -0.580965          0.000000
H              0.799571         -0.580965          0.000000
O             -3.445964         -2.471277          0.000000
H             -4.245535         -3.042409          0.000000
H             -2.646392         -3.042409          0.000000

