%NProcShared=4 
%Mem=4GB  
%Chk=H2O_H2O_3358.chk 

#p CCSD(T)/cc-pVTZ 

H2O_H2O_3358

0 1
O             -0.000000         -0.009833          0.000000
H             -0.799571         -0.580965          0.000000
H              0.799571         -0.580965          0.000000
O             -3.840374         -2.748174          0.000000
H             -4.818389         -2.843003          0.000000
H             -3.433491         -3.642574          0.000000

