%NProcShared=4 
%Mem=4GB  
%Chk=H2O_H2O_806.chk 

#p CCSD(T)/cc-pVTZ 

H2O_H2O_806

0 1
O             -0.000000         -0.009833          0.000000
H             -0.799571         -0.580965          0.000000
H              0.799571         -0.580965          0.000000
O             -2.183873         -1.566332          0.000000
H             -3.141143         -1.788006          0.000000
H             -1.663728         -2.399972          0.000000

