%NProcShared=4 
%Mem=4GB  
%Chk=H2O_H2O_840.chk 

#p CCSD(T)/cc-pVTZ 

H2O_H2O_840

0 1
O             -0.000000         -0.009833          0.000000
H             -0.799571         -0.580965          0.000000
H              0.799571         -0.580965          0.000000
O             -2.204515         -1.574303          0.000000
H             -3.123611         -1.226787          0.000000
H             -2.235175         -2.556426          0.000000

