%NProcShared=4 
%Mem=4GB  
%Chk=H2O_H2O_2782.chk 

#p CCSD(T)/cc-pVTZ 

H2O_H2O_2782

0 1
O             -0.000000         -0.009833          0.000000
H             -0.799571         -0.580965          0.000000
H              0.799571         -0.580965          0.000000
O             -3.466542         -2.481855          0.000000
H             -4.436261         -2.640447          0.000000
H             -3.002033         -3.347729          0.000000

