%NProcShared=4 
%Mem=4GB  
%Chk=H2O_H2O_2441.chk 

#p CCSD(T)/cc-pVTZ 

H2O_H2O_2441

0 1
O             -0.000000         -0.009833          0.000000
H             -0.799571         -0.580965          0.000000
H              0.799571         -0.580965          0.000000
O             -3.243504         -2.315661          0.000000
H             -4.137904         -1.908778          0.000000
H             -3.338333         -3.293676          0.000000

