%NProcShared=4 
%Mem=4GB  
%Chk=H2O_H2O_2297.chk 

#p CCSD(T)/cc-pVTZ 

H2O_H2O_2297

0 1
O             -0.000000         -0.009833          0.000000
H             -0.799571         -0.580965          0.000000
H              0.799571         -0.580965          0.000000
O             -3.147364         -2.242474          0.000000
H             -3.817975         -1.524291          0.000000
H             -3.609245         -3.109753          0.000000

