%NProcShared=4 
%Mem=4GB  
%Chk=H2O_H2O_4528.chk 

#p CCSD(T)/cc-pVTZ 

H2O_H2O_4528

0 1
O             -0.000000         -0.009833          0.000000
H             -0.799571         -0.580965          0.000000
H              0.799571         -0.580965          0.000000
O             -4.600134         -3.294139          0.000000
H             -5.495764         -3.698308          0.000000
H             -3.927348         -4.010286          0.000000

