%NProcShared=4 
%Mem=4GB  
%Chk=H2O_H2O_1749.chk 

#p CCSD(T)/cc-pVTZ 

H2O_H2O_1749

0 1
O             -0.000000         -0.009833          0.000000
H             -0.799571         -0.580965          0.000000
H              0.799571         -0.580965          0.000000
O             -2.790412         -1.986161          0.000000
H             -3.361544         -1.186590          0.000000
H             -3.361544         -2.785732          0.000000

