%NProcShared=4 
%Mem=4GB  
%Chk=H2O_H2O_858.chk 

#p CCSD(T)/cc-pVTZ 

H2O_H2O_858

0 1
O             -0.000000         -0.009833          0.000000
H             -0.799571         -0.580965          0.000000
H              0.799571         -0.580965          0.000000
O             -2.217484         -1.588948          0.000000
H             -3.195499         -1.683777          0.000000
H             -1.810601         -2.483348          0.000000

