%NProcShared=4 
%Mem=4GB  
%Chk=H2O_H2O_366.chk 

#p CCSD(T)/cc-pVTZ 

H2O_H2O_366

0 1
O             -0.000000         -0.009833          0.000000
H             -0.799571         -0.580965          0.000000
H              0.799571         -0.580965          0.000000
O             -1.896505         -1.353503          0.000000
H             -2.790906         -0.946620          0.000000
H             -1.991334         -2.331518          0.000000

