%NProcShared=4 
%Mem=4GB  
%Chk=H2O_H2O_4811.chk 

#p CCSD(T)/cc-pVTZ 

H2O_H2O_4811

0 1
O             -0.000000         -0.009833          0.000000
H             -0.799571         -0.580965          0.000000
H              0.799571         -0.580965          0.000000
O             -4.783217         -3.419403          0.000000
H             -5.760940         -3.321608          0.000000
H             -4.558641         -4.375996          0.000000

