%NProcShared=4 
%Mem=4GB  
%Chk=H2O_H2O_3692.chk 

#p CCSD(T)/cc-pVTZ 

H2O_H2O_3692

0 1
O             -0.000000         -0.009833          0.000000
H             -0.799571         -0.580965          0.000000
H              0.799571         -0.580965          0.000000
O             -4.055252         -2.894707          0.000000
H             -4.921126         -2.430198          0.000000
H             -4.213844         -3.864426          0.000000

