%NProcShared=4 
%Mem=4GB  
%Chk=H2O_H2O_1123.chk 

#p CCSD(T)/cc-pVTZ 

H2O_H2O_1123

0 1
O             -0.000000         -0.009833          0.000000
H             -0.799571         -0.580965          0.000000
H              0.799571         -0.580965          0.000000
O             -2.384669         -1.696998          0.000000
H             -3.006872         -0.936492          0.000000
H             -2.902283         -2.532211          0.000000

