%NProcShared=4 
%Mem=4GB  
%Chk=H2O_H2O_106.chk 

#p CCSD(T)/cc-pVTZ 

H2O_H2O_106

0 1
O             -0.000000         -0.009833          0.000000
H             -0.799571         -0.580965          0.000000
H              0.799571         -0.580965          0.000000
O             -1.729464         -1.241749          0.000000
H             -2.686734         -1.463423          0.000000
H             -1.209319         -2.075388          0.000000

