%NProcShared=4 
%Mem=4GB  
%Chk=H2O_H2O_2349.chk 

#p CCSD(T)/cc-pVTZ 

H2O_H2O_2349

0 1
O             -0.000000         -0.009833          0.000000
H             -0.799571         -0.580965          0.000000
H              0.799571         -0.580965          0.000000
O             -3.179906         -2.264375          0.000000
H             -3.751038         -1.464804          0.000000
H             -3.751038         -3.063947          0.000000

