%NProcShared=4 
%Mem=4GB  
%Chk=H2O_H2O_1221.chk 

#p CCSD(T)/cc-pVTZ 

H2O_H2O_1221

0 1
O             -0.000000         -0.009833          0.000000
H             -0.799571         -0.580965          0.000000
H              0.799571         -0.580965          0.000000
O             -2.449416         -1.744642          0.000000
H             -3.165563         -1.071856          0.000000
H             -2.853585         -2.640272          0.000000

