%NProcShared=4 
%Mem=4GB  
%Chk=H2O_H2O_4955.chk 

#p CCSD(T)/cc-pVTZ 

H2O_H2O_4955

0 1
O             -0.000000         -0.009833          0.000000
H             -0.799571         -0.580965          0.000000
H              0.799571         -0.580965          0.000000
O             -4.877267         -3.490875          0.000000
H             -5.817990         -3.774683          0.000000
H             -4.303714         -4.288711          0.000000

