%NProcShared=4 
%Mem=4GB  
%Chk=H2O_H2O_3703.chk 

#p CCSD(T)/cc-pVTZ 

H2O_H2O_3703

0 1
O             -0.000000         -0.009833          0.000000
H             -0.799571         -0.580965          0.000000
H              0.799571         -0.580965          0.000000
O             -4.064580         -2.911594          0.000000
H             -4.960211         -3.315763          0.000000
H             -3.391795         -3.627741          0.000000

