%NProcShared=4 
%Mem=4GB  
%Chk=H2O_H2O_2687.chk 

#p CCSD(T)/cc-pVTZ 

H2O_H2O_2687

0 1
O             -0.000000         -0.009833          0.000000
H             -0.799571         -0.580965          0.000000
H              0.799571         -0.580965          0.000000
O             -3.404230         -2.433620          0.000000
H             -4.373464         -2.272089          0.000000
H             -3.242699         -3.402854          0.000000

