%NProcShared=4 
%Mem=4GB  
%Chk=H2O_H2O_4346.chk 

#p CCSD(T)/cc-pVTZ 

H2O_H2O_4346

0 1
O             -0.000000         -0.009833          0.000000
H             -0.799571         -0.580965          0.000000
H              0.799571         -0.580965          0.000000
O             -4.478029         -3.193675          0.000000
H             -5.194175         -2.520889          0.000000
H             -4.882198         -4.089305          0.000000

