%NProcShared=4 
%Mem=4GB  
%Chk=H2O_H2O_2900.chk 

#p CCSD(T)/cc-pVTZ 

H2O_H2O_2900

0 1
O             -0.000000         -0.009833          0.000000
H             -0.799571         -0.580965          0.000000
H              0.799571         -0.580965          0.000000
O             -3.543337         -2.540831          0.000000
H             -4.342908         -3.111963          0.000000
H             -2.743766         -3.111963          0.000000

