%NProcShared=4 
%Mem=4GB  
%Chk=H2O_H2O_3775.chk 

#p CCSD(T)/cc-pVTZ 

H2O_H2O_3775

0 1
O             -0.000000         -0.009833          0.000000
H             -0.799571         -0.580965          0.000000
H              0.799571         -0.580965          0.000000
O             -4.111349         -2.946560          0.000000
H             -4.910920         -3.517692          0.000000
H             -3.311777         -3.517692          0.000000

