%NProcShared=4 
%Mem=4GB  
%Chk=H2O_H2O_3624.chk 

#p CCSD(T)/cc-pVTZ 

H2O_H2O_3624

0 1
O             -0.000000         -0.009833          0.000000
H             -0.799571         -0.580965          0.000000
H              0.799571         -0.580965          0.000000
O             -4.007579         -2.855581          0.000000
H             -4.578711         -2.056010          0.000000
H             -4.578711         -3.655152          0.000000

