%NProcShared=4 
%Mem=4GB  
%Chk=H2O_H2O_3492.chk 

#p CCSD(T)/cc-pVTZ 

H2O_H2O_3492

0 1
O             -0.000000         -0.009833          0.000000
H             -0.799571         -0.580965          0.000000
H              0.799571         -0.580965          0.000000
O             -3.925421         -2.801969          0.000000
H             -4.791295         -2.337460          0.000000
H             -4.084012         -3.771688          0.000000

