%NProcShared=4 
%Mem=4GB  
%Chk=H2O_H2O_3138.chk 

#p CCSD(T)/cc-pVTZ 

H2O_H2O_3138

0 1
O             -0.000000         -0.009833          0.000000
H             -0.799571         -0.580965          0.000000
H              0.799571         -0.580965          0.000000
O             -3.696790         -2.641811          0.000000
H             -4.653384         -2.417235          0.000000
H             -3.598996         -3.619535          0.000000

