%NProcShared=4 
%Mem=4GB  
%Chk=H2O_H2O_3087.chk 

#p CCSD(T)/cc-pVTZ 

H2O_H2O_3087

0 1
O             -0.000000         -0.009833          0.000000
H             -0.799571         -0.580965          0.000000
H              0.799571         -0.580965          0.000000
O             -3.663893         -2.619096          0.000000
H             -4.633126         -2.457565          0.000000
H             -3.502362         -3.588330          0.000000

