%NProcShared=4 
%Mem=4GB  
%Chk=H2O_H2O_533.chk 

#p CCSD(T)/cc-pVTZ 

H2O_H2O_533

0 1
O             -0.000000         -0.009833          0.000000
H             -0.799571         -0.580965          0.000000
H              0.799571         -0.580965          0.000000
O             -2.006508         -1.438248          0.000000
H             -2.984523         -1.533077          0.000000
H             -1.599625         -2.332649          0.000000

