%NProcShared=4 
%Mem=4GB  
%Chk=H2O_H2O_2131.chk 

#p CCSD(T)/cc-pVTZ 

H2O_H2O_2131

0 1
O             -0.000000         -0.009833          0.000000
H             -0.799571         -0.580965          0.000000
H              0.799571         -0.580965          0.000000
O             -3.044004         -2.180722          0.000000
H             -4.001275         -2.402396          0.000000
H             -2.523859         -3.014362          0.000000

