%NProcShared=4 
%Mem=4GB  
%Chk=H2O_H2O_2004.chk 

#p CCSD(T)/cc-pVTZ 

H2O_H2O_2004

0 1
O             -0.000000         -0.009833          0.000000
H             -0.799571         -0.580965          0.000000
H              0.799571         -0.580965          0.000000
O             -2.961642         -2.123174          0.000000
H             -3.881788         -2.467901          0.000000
H             -2.337135         -2.881789          0.000000

