%NProcShared=4 
%Mem=4GB  
%Chk=H2O_H2O_3036.chk 

#p CCSD(T)/cc-pVTZ 

H2O_H2O_3036

0 1
O             -0.000000         -0.009833          0.000000
H             -0.799571         -0.580965          0.000000
H              0.799571         -0.580965          0.000000
O             -3.630965         -2.596352          0.000000
H             -4.608688         -2.498558          0.000000
H             -3.406389         -3.552946          0.000000

