%NProcShared=4 
%Mem=4GB  
%Chk=H2O_H2O_4804.chk 

#p CCSD(T)/cc-pVTZ 

H2O_H2O_4804

0 1
O             -0.000000         -0.009833          0.000000
H             -0.799571         -0.580965          0.000000
H              0.799571         -0.580965          0.000000
O             -4.779279         -3.421508          0.000000
H             -5.699425         -3.766235          0.000000
H             -4.154772         -4.180123          0.000000

