%NProcShared=4 
%Mem=4GB  
%Chk=H2O_H2O_1612.chk 

#p CCSD(T)/cc-pVTZ 

H2O_H2O_1612

0 1
O             -0.000000         -0.009833          0.000000
H             -0.799571         -0.580965          0.000000
H              0.799571         -0.580965          0.000000
O             -2.706388         -1.935153          0.000000
H             -3.675621         -1.773622          0.000000
H             -2.544857         -2.904387          0.000000

