%NProcShared=4 
%Mem=4GB  
%Chk=H2O_H2O_4113.chk 

#p CCSD(T)/cc-pVTZ 

H2O_H2O_4113

0 1
O             -0.000000         -0.009833          0.000000
H             -0.799571         -0.580965          0.000000
H              0.799571         -0.580965          0.000000
O             -4.329717         -3.093910          0.000000
H             -5.286311         -2.869334          0.000000
H             -4.231923         -4.071633          0.000000

