%NProcShared=4 
%Mem=4GB  
%Chk=H2O_H2O_2363.chk 

#p CCSD(T)/cc-pVTZ 

H2O_H2O_2363

0 1
O             -0.000000         -0.009833          0.000000
H             -0.799571         -0.580965          0.000000
H              0.799571         -0.580965          0.000000
O             -3.193694         -2.282451          0.000000
H             -4.150288         -2.057875          0.000000
H             -3.095900         -3.260174          0.000000

