%NProcShared=4 
%Mem=4GB  
%Chk=H2O_H2O_2947.chk 

#p CCSD(T)/cc-pVTZ 

H2O_H2O_2947

0 1
O             -0.000000         -0.009833          0.000000
H             -0.799571         -0.580965          0.000000
H              0.799571         -0.580965          0.000000
O             -3.569315         -2.543873          0.000000
H             -4.239926         -1.825690          0.000000
H             -4.031196         -3.411152          0.000000

