%NProcShared=4 
%Mem=4GB  
%Chk=H2O_H2O_1633.chk 

#p CCSD(T)/cc-pVTZ 

H2O_H2O_1633

0 1
O             -0.000000         -0.009833          0.000000
H             -0.799571         -0.580965          0.000000
H              0.799571         -0.580965          0.000000
O             -2.720580         -1.948308          0.000000
H             -3.698595         -2.043137          0.000000
H             -2.313697         -2.842708          0.000000

