%NProcShared=4 
%Mem=4GB  
%Chk=H2O_H2O_4492.chk 

#p CCSD(T)/cc-pVTZ 

H2O_H2O_4492

0 1
O             -0.000000         -0.009833          0.000000
H             -0.799571         -0.580965          0.000000
H              0.799571         -0.580965          0.000000
O             -4.574577         -3.265659          0.000000
H             -5.440451         -2.801151          0.000000
H             -4.733168         -4.235378          0.000000

