%NProcShared=4 
%Mem=4GB  
%Chk=H2O_H2O_3609.chk 

#p CCSD(T)/cc-pVTZ 

H2O_H2O_3609

0 1
O             -0.000000         -0.009833          0.000000
H             -0.799571         -0.580965          0.000000
H              0.799571         -0.580965          0.000000
O             -4.003209         -2.863757          0.000000
H             -4.985333         -2.894418          0.000000
H             -3.655694         -3.782854          0.000000

