%NProcShared=4 
%Mem=4GB  
%Chk=H2O_H2O_1539.chk 

#p CCSD(T)/cc-pVTZ 

H2O_H2O_1539

0 1
O             -0.000000         -0.009833          0.000000
H             -0.799571         -0.580965          0.000000
H              0.799571         -0.580965          0.000000
O             -2.658549         -1.899409          0.000000
H             -3.598407         -1.612750          0.000000
H             -2.624910         -2.881435          0.000000

