%NProcShared=4 
%Mem=4GB  
%Chk=H2O_H2O_3338.chk 

#p CCSD(T)/cc-pVTZ 

H2O_H2O_3338

0 1
O             -0.000000         -0.009833          0.000000
H             -0.799571         -0.580965          0.000000
H              0.799571         -0.580965          0.000000
O             -3.826621         -2.734550          0.000000
H             -4.783215         -2.509973          0.000000
H             -3.728827         -3.712273          0.000000

