%NProcShared=4 
%Mem=4GB  
%Chk=H2O_H2O_4464.chk 

#p CCSD(T)/cc-pVTZ 

H2O_H2O_4464

0 1
O             -0.000000         -0.009833          0.000000
H             -0.799571         -0.580965          0.000000
H              0.799571         -0.580965          0.000000
O             -4.557330         -3.255704          0.000000
H             -5.497188         -2.969045          0.000000
H             -4.523691         -4.237730          0.000000

