%NProcShared=4 
%Mem=4GB  
%Chk=H2O_H2O_3152.chk 

#p CCSD(T)/cc-pVTZ 

H2O_H2O_3152

0 1
O             -0.000000         -0.009833          0.000000
H             -0.799571         -0.580965          0.000000
H              0.799571         -0.580965          0.000000
O             -3.706910         -2.656669          0.000000
H             -4.574188         -3.118550          0.000000
H             -2.988726         -3.327280          0.000000

