%NProcShared=4 
%Mem=4GB  
%Chk=H2O_H2O_4421.chk 

#p CCSD(T)/cc-pVTZ 

H2O_H2O_4421

0 1
O             -0.000000         -0.009833          0.000000
H             -0.799571         -0.580965          0.000000
H              0.799571         -0.580965          0.000000
O             -4.526715         -3.228452          0.000000
H             -5.242862         -2.555666          0.000000
H             -4.930884         -4.124082          0.000000

