%NProcShared=4 
%Mem=4GB  
%Chk=H2O_H2O_3273.chk 

#p CCSD(T)/cc-pVTZ 

H2O_H2O_3273

0 1
O             -0.000000         -0.009833          0.000000
H             -0.799571         -0.580965          0.000000
H              0.799571         -0.580965          0.000000
O             -3.780354         -2.693932          0.000000
H             -4.402557         -1.933427          0.000000
H             -4.297969         -3.529146          0.000000

