%NProcShared=4 
%Mem=4GB  
%Chk=H2O_H2O_1263.chk 

#p CCSD(T)/cc-pVTZ 

H2O_H2O_1263

0 1
O             -0.000000         -0.009833          0.000000
H             -0.799571         -0.580965          0.000000
H              0.799571         -0.580965          0.000000
O             -2.479623         -1.772392          0.000000
H             -3.436217         -1.547815          0.000000
H             -2.381829         -2.750115          0.000000

