%NProcShared=4 
%Mem=4GB  
%Chk=H2O_H2O_2691.chk 

#p CCSD(T)/cc-pVTZ 

H2O_H2O_2691

0 1
O             -0.000000         -0.009833          0.000000
H             -0.799571         -0.580965          0.000000
H              0.799571         -0.580965          0.000000
O             -3.405793         -2.431584          0.000000
H             -4.300193         -2.024701          0.000000
H             -3.500622         -3.409599          0.000000

