%NProcShared=4 
%Mem=4GB  
%Chk=H2O_H2O_480.chk 

#p CCSD(T)/cc-pVTZ 

H2O_H2O_480

0 1
O             -0.000000         -0.009833          0.000000
H             -0.799571         -0.580965          0.000000
H              0.799571         -0.580965          0.000000
O             -1.972295         -1.415859          0.000000
H             -2.913017         -1.699667          0.000000
H             -1.398741         -2.213695          0.000000

