%NProcShared=4 
%Mem=4GB  
%Chk=H2O_H2O_1290.chk 

#p CCSD(T)/cc-pVTZ 

H2O_H2O_1290

0 1
O             -0.000000         -0.009833          0.000000
H             -0.799571         -0.580965          0.000000
H              0.799571         -0.580965          0.000000
O             -2.496635         -1.782963          0.000000
H             -3.415732         -1.435448          0.000000
H             -2.527296         -2.765087          0.000000

