%NProcShared=4 
%Mem=4GB  
%Chk=H2O_H2O_166.chk 

#p CCSD(T)/cc-pVTZ 

H2O_H2O_166

0 1
O             -0.000000         -0.009833          0.000000
H             -0.799571         -0.580965          0.000000
H              0.799571         -0.580965          0.000000
O             -1.766674         -1.260765          0.000000
H             -2.661075         -0.853882          0.000000
H             -1.861503         -2.238780          0.000000

