%NProcShared=4 
%Mem=4GB  
%Chk=H2O_H2O_3395.chk 

#p CCSD(T)/cc-pVTZ 

H2O_H2O_3395

0 1
O             -0.000000         -0.009833          0.000000
H             -0.799571         -0.580965          0.000000
H              0.799571         -0.580965          0.000000
O             -3.861184         -2.753796          0.000000
H             -4.619800         -2.129289          0.000000
H             -4.205911         -3.673942          0.000000

