%NProcShared=4 
%Mem=4GB  
%Chk=H2O_H2O_1528.chk 

#p CCSD(T)/cc-pVTZ 

H2O_H2O_1528

0 1
O             -0.000000         -0.009833          0.000000
H             -0.799571         -0.580965          0.000000
H              0.799571         -0.580965          0.000000
O             -2.652666         -1.903067          0.000000
H             -3.548296         -2.307236          0.000000
H             -1.979881         -2.619214          0.000000

