%NProcShared=4 
%Mem=4GB  
%Chk=H2O_H2O_876.chk 

#p CCSD(T)/cc-pVTZ 

H2O_H2O_876

0 1
O             -0.000000         -0.009833          0.000000
H             -0.799571         -0.580965          0.000000
H              0.799571         -0.580965          0.000000
O             -2.229440         -1.601836          0.000000
H             -3.064653         -2.119451          0.000000
H             -1.468934         -2.224040          0.000000

