%NProcShared=4 
%Mem=4GB  
%Chk=H2O_H2O_3918.chk 

#p CCSD(T)/cc-pVTZ 

H2O_H2O_3918

0 1
O             -0.000000         -0.009833          0.000000
H             -0.799571         -0.580965          0.000000
H              0.799571         -0.580965          0.000000
O             -4.201578         -2.998451          0.000000
H             -5.035218         -2.478306          0.000000
H             -4.423252         -3.955722          0.000000

