%NProcShared=4 
%Mem=4GB  
%Chk=H2O_H2O_2252.chk 

#p CCSD(T)/cc-pVTZ 

H2O_H2O_2252

0 1
O             -0.000000         -0.009833          0.000000
H             -0.799571         -0.580965          0.000000
H              0.799571         -0.580965          0.000000
O             -3.122669         -2.239348          0.000000
H             -3.989948         -2.701228          0.000000
H             -2.404486         -2.909959          0.000000

