%NProcShared=4 
%Mem=4GB  
%Chk=H2O_H2O_4293.chk 

#p CCSD(T)/cc-pVTZ 

H2O_H2O_4293

0 1
O             -0.000000         -0.009833          0.000000
H             -0.799571         -0.580965          0.000000
H              0.799571         -0.580965          0.000000
O             -4.445011         -3.172335          0.000000
H             -5.278651         -2.652190          0.000000
H             -4.666686         -4.129605          0.000000

