%NProcShared=4 
%Mem=4GB  
%Chk=H2O_H2O_557.chk 

#p CCSD(T)/cc-pVTZ 

H2O_H2O_557

0 1
O             -0.000000         -0.009833          0.000000
H             -0.799571         -0.580965          0.000000
H              0.799571         -0.580965          0.000000
O             -2.022170         -1.450144          0.000000
H             -2.991889         -1.608735          0.000000
H             -1.557661         -2.316018          0.000000

