%NProcShared=4 
%Mem=4GB  
%Chk=H2O_H2O_636.chk 

#p CCSD(T)/cc-pVTZ 

H2O_H2O_636

0 1
O             -0.000000         -0.009833          0.000000
H             -0.799571         -0.580965          0.000000
H              0.799571         -0.580965          0.000000
O             -2.072991         -1.483494          0.000000
H             -3.050714         -1.385700          0.000000
H             -1.848415         -2.440088          0.000000

