%NProcShared=4 
%Mem=4GB  
%Chk=H2O_H2O_1834.chk 

#p CCSD(T)/cc-pVTZ 

H2O_H2O_1834

0 1
O             -0.000000         -0.009833          0.000000
H             -0.799571         -0.580965          0.000000
H              0.799571         -0.580965          0.000000
O             -2.850958         -2.040706          0.000000
H             -3.833081         -2.071367          0.000000
H             -2.503442         -2.959803          0.000000

