%NProcShared=4 
%Mem=4GB  
%Chk=H2O_H2O_3342.chk 

#p CCSD(T)/cc-pVTZ 

H2O_H2O_3342

0 1
O             -0.000000         -0.009833          0.000000
H             -0.799571         -0.580965          0.000000
H              0.799571         -0.580965          0.000000
O             -3.828047         -2.732415          0.000000
H             -4.693922         -2.267907          0.000000
H             -3.986639         -3.702134          0.000000

