%NProcShared=4 
%Mem=4GB  
%Chk=H2O_H2O_1795.chk 

#p CCSD(T)/cc-pVTZ 

H2O_H2O_1795

0 1
O             -0.000000         -0.009833          0.000000
H             -0.799571         -0.580965          0.000000
H              0.799571         -0.580965          0.000000
O             -2.822535         -2.011891          0.000000
H             -3.581150         -1.387384          0.000000
H             -3.167262         -2.932037          0.000000

