%NProcShared=4 
%Mem=4GB  
%Chk=H2O_H2O_3331.chk 

#p CCSD(T)/cc-pVTZ 

H2O_H2O_3331

0 1
O             -0.000000         -0.009833          0.000000
H             -0.799571         -0.580965          0.000000
H              0.799571         -0.580965          0.000000
O             -3.822991         -2.737151          0.000000
H             -4.780262         -2.958825          0.000000
H             -3.302846         -3.570791          0.000000

