%NProcShared=4 
%Mem=4GB  
%Chk=H2O_H2O_295.chk 

#p CCSD(T)/cc-pVTZ 

H2O_H2O_295

0 1
O             -0.000000         -0.009833          0.000000
H             -0.799571         -0.580965          0.000000
H              0.799571         -0.580965          0.000000
O             -1.848801         -1.316355          0.000000
H             -2.607416         -0.691848          0.000000
H             -2.193528         -2.236501          0.000000

