%NProcShared=4 
%Mem=4GB  
%Chk=H2O_H2O_392.chk 

#p CCSD(T)/cc-pVTZ 

H2O_H2O_392

0 1
O             -0.000000         -0.009833          0.000000
H             -0.799571         -0.580965          0.000000
H              0.799571         -0.580965          0.000000
O             -1.913038         -1.364528          0.000000
H             -2.778912         -0.900019          0.000000
H             -2.071629         -2.334247          0.000000

