%NProcShared=4 
%Mem=4GB  
%Chk=H2O_H2O_4170.chk 

#p CCSD(T)/cc-pVTZ 

H2O_H2O_4170

0 1
O             -0.000000         -0.009833          0.000000
H             -0.799571         -0.580965          0.000000
H              0.799571         -0.580965          0.000000
O             -4.364280         -3.113156          0.000000
H             -5.122896         -2.488649          0.000000
H             -4.709007         -4.033302          0.000000

