%NProcShared=4 
%Mem=4GB  
%Chk=H2O_H2O_1164.chk 

#p CCSD(T)/cc-pVTZ 

H2O_H2O_1164

0 1
O             -0.000000         -0.009833          0.000000
H             -0.799571         -0.580965          0.000000
H              0.799571         -0.580965          0.000000
O             -2.415116         -1.725525          0.000000
H             -3.354973         -1.438866          0.000000
H             -2.381477         -2.707551          0.000000

