%NProcShared=4 
%Mem=4GB  
%Chk=H2O_H2O_655.chk 

#p CCSD(T)/cc-pVTZ 

H2O_H2O_655

0 1
O             -0.000000         -0.009833          0.000000
H             -0.799571         -0.580965          0.000000
H              0.799571         -0.580965          0.000000
O             -2.085897         -1.497005          0.000000
H             -3.026620         -1.780813          0.000000
H             -1.512343         -2.294841          0.000000

