%NProcShared=4 
%Mem=4GB  
%Chk=H2O_H2O_1593.chk 

#p CCSD(T)/cc-pVTZ 

H2O_H2O_1593

0 1
O             -0.000000         -0.009833          0.000000
H             -0.799571         -0.580965          0.000000
H              0.799571         -0.580965          0.000000
O             -2.692290         -1.920371          0.000000
H             -3.525930         -1.400226          0.000000
H             -2.913965         -2.877641          0.000000

