%NProcShared=4 
%Mem=4GB  
%Chk=H2O_H2O_872.chk 

#p CCSD(T)/cc-pVTZ 

H2O_H2O_872

0 1
O             -0.000000         -0.009833          0.000000
H             -0.799571         -0.580965          0.000000
H              0.799571         -0.580965          0.000000
O             -2.222317         -1.581715          0.000000
H             -2.892927         -0.863532          0.000000
H             -2.684197         -2.448994          0.000000

