%NProcShared=4 
%Mem=4GB  
%Chk=H2O_H2O_4431.chk 

#p CCSD(T)/cc-pVTZ 

H2O_H2O_4431

0 1
O             -0.000000         -0.009833          0.000000
H             -0.799571         -0.580965          0.000000
H              0.799571         -0.580965          0.000000
O             -4.537063         -3.247210          0.000000
H             -5.494333         -3.468885          0.000000
H             -4.016918         -4.080850          0.000000

