%NProcShared=4 
%Mem=4GB  
%Chk=H2O_H2O_1481.chk 

#p CCSD(T)/cc-pVTZ 

H2O_H2O_1481

0 1
O             -0.000000         -0.009833          0.000000
H             -0.799571         -0.580965          0.000000
H              0.799571         -0.580965          0.000000
O             -2.622053         -1.879323          0.000000
H             -3.579323         -2.100997          0.000000
H             -2.101908         -2.712963          0.000000

