%NProcShared=4 
%Mem=4GB  
%Chk=H2O_H2O_4730.chk 

#p CCSD(T)/cc-pVTZ 

H2O_H2O_4730

0 1
O             -0.000000         -0.009833          0.000000
H             -0.799571         -0.580965          0.000000
H              0.799571         -0.580965          0.000000
O             -4.731207         -3.386544          0.000000
H             -5.671930         -3.670353          0.000000
H             -4.157654         -4.184380          0.000000

