%NProcShared=4 
%Mem=4GB  
%Chk=H2O_H2O_755.chk 

#p CCSD(T)/cc-pVTZ 

H2O_H2O_755

0 1
O             -0.000000         -0.009833          0.000000
H             -0.799571         -0.580965          0.000000
H              0.799571         -0.580965          0.000000
O             -2.150813         -1.543374          0.000000
H             -3.091535         -1.827182          0.000000
H             -1.577259         -2.341210          0.000000

