%NProcShared=4 
%Mem=4GB  
%Chk=H2O_H2O_4782.chk 

#p CCSD(T)/cc-pVTZ 

H2O_H2O_4782

0 1
O             -0.000000         -0.009833          0.000000
H             -0.799571         -0.580965          0.000000
H              0.799571         -0.580965          0.000000
O             -4.764854         -3.409236          0.000000
H             -5.734573         -3.567828          0.000000
H             -4.300345         -4.275111          0.000000

