%NProcShared=4 
%Mem=4GB  
%Chk=H2O_H2O_2663.chk 

#p CCSD(T)/cc-pVTZ 

H2O_H2O_2663

0 1
O             -0.000000         -0.009833          0.000000
H             -0.799571         -0.580965          0.000000
H              0.799571         -0.580965          0.000000
O             -3.388441         -2.421558          0.000000
H             -4.345035         -2.196982          0.000000
H             -3.290647         -3.399281          0.000000

