%NProcShared=4 
%Mem=4GB  
%Chk=H2O_H2O_4444.chk 

#p CCSD(T)/cc-pVTZ 

H2O_H2O_4444

0 1
O             -0.000000         -0.009833          0.000000
H             -0.799571         -0.580965          0.000000
H              0.799571         -0.580965          0.000000
O             -4.542611         -3.241286          0.000000
H             -5.340447         -2.667733          0.000000
H             -4.826419         -4.182009          0.000000

