%NProcShared=4 
%Mem=4GB  
%Chk=H2O_H2O_3116.chk 

#p CCSD(T)/cc-pVTZ 

H2O_H2O_3116

0 1
O             -0.000000         -0.009833          0.000000
H             -0.799571         -0.580965          0.000000
H              0.799571         -0.580965          0.000000
O             -3.681684         -2.628652          0.000000
H             -4.576085         -2.221769          0.000000
H             -3.776513         -3.606667          0.000000

