%NProcShared=4 
%Mem=4GB  
%Chk=H2O_H2O_4461.chk 

#p CCSD(T)/cc-pVTZ 

H2O_H2O_4461

0 1
O             -0.000000         -0.009833          0.000000
H             -0.799571         -0.580965          0.000000
H              0.799571         -0.580965          0.000000
O             -4.556012         -3.257111          0.000000
H             -5.533735         -3.159317          0.000000
H             -4.331436         -4.213705          0.000000

