%NProcShared=4 
%Mem=4GB  
%Chk=H2O_H2O_1081.chk 

#p CCSD(T)/cc-pVTZ 

H2O_H2O_1081

0 1
O             -0.000000         -0.009833          0.000000
H             -0.799571         -0.580965          0.000000
H              0.799571         -0.580965          0.000000
O             -2.362390         -1.693847          0.000000
H             -3.319661         -1.915521          0.000000
H             -1.842246         -2.527487          0.000000

