%NProcShared=4 
%Mem=4GB  
%Chk=H2O_H2O_3033.chk 

#p CCSD(T)/cc-pVTZ 

H2O_H2O_3033

0 1
O             -0.000000         -0.009833          0.000000
H             -0.799571         -0.580965          0.000000
H              0.799571         -0.580965          0.000000
O             -3.629398         -2.597475          0.000000
H             -4.607413         -2.692304          0.000000
H             -3.222515         -3.491875          0.000000

