%NProcShared=4 
%Mem=4GB  
%Chk=H2O_H2O_505.chk 

#p CCSD(T)/cc-pVTZ 

H2O_H2O_505

0 1
O             -0.000000         -0.009833          0.000000
H             -0.799571         -0.580965          0.000000
H              0.799571         -0.580965          0.000000
O             -1.988524         -1.427451          0.000000
H             -2.929246         -1.711260          0.000000
H             -1.414970         -2.225287          0.000000

