%NProcShared=4 
%Mem=4GB  
%Chk=H2O_H2O_2012.chk 

#p CCSD(T)/cc-pVTZ 

H2O_H2O_2012

0 1
O             -0.000000         -0.009833          0.000000
H             -0.799571         -0.580965          0.000000
H              0.799571         -0.580965          0.000000
O             -2.966050         -2.120629          0.000000
H             -3.935284         -1.959098          0.000000
H             -2.804519         -3.089863          0.000000

