%NProcShared=4 
%Mem=4GB  
%Chk=H2O_H2O_3648.chk 

#p CCSD(T)/cc-pVTZ 

H2O_H2O_3648

0 1
O             -0.000000         -0.009833          0.000000
H             -0.799571         -0.580965          0.000000
H              0.799571         -0.580965          0.000000
O             -4.023787         -2.867816          0.000000
H             -4.645991         -2.107311          0.000000
H             -4.541402         -3.703029          0.000000

