%NProcShared=4 
%Mem=4GB  
%Chk=H2O_H2O_4078.chk 

#p CCSD(T)/cc-pVTZ 

H2O_H2O_4078

0 1
O             -0.000000         -0.009833          0.000000
H             -0.799571         -0.580965          0.000000
H              0.799571         -0.580965          0.000000
O             -4.308014         -3.085478          0.000000
H             -5.203644         -3.489647          0.000000
H             -3.635228         -3.801625          0.000000

