%NProcShared=4 
%Mem=4GB  
%Chk=H2O_H2O_3218.chk 

#p CCSD(T)/cc-pVTZ 

H2O_H2O_3218

0 1
O             -0.000000         -0.009833          0.000000
H             -0.799571         -0.580965          0.000000
H              0.799571         -0.580965          0.000000
O             -3.747169         -2.673868          0.000000
H             -4.580808         -2.153723          0.000000
H             -3.968843         -3.631138          0.000000

