%NProcShared=4 
%Mem=4GB  
%Chk=H2O_H2O_4032.chk 

#p CCSD(T)/cc-pVTZ 

H2O_H2O_4032

0 1
O             -0.000000         -0.009833          0.000000
H             -0.799571         -0.580965          0.000000
H              0.799571         -0.580965          0.000000
O             -4.277987         -3.061469          0.000000
H             -5.247706         -3.220060          0.000000
H             -3.813478         -3.927343          0.000000

