%NProcShared=4 
%Mem=4GB  
%Chk=H2O_H2O_716.chk 

#p CCSD(T)/cc-pVTZ 

H2O_H2O_716

0 1
O             -0.000000         -0.009833          0.000000
H             -0.799571         -0.580965          0.000000
H              0.799571         -0.580965          0.000000
O             -2.123710         -1.515795          0.000000
H             -3.018110         -1.108912          0.000000
H             -2.218539         -2.493810          0.000000

