%NProcShared=4 
%Mem=4GB  
%Chk=H2O_H2O_1688.chk 

#p CCSD(T)/cc-pVTZ 

H2O_H2O_1688

0 1
O             -0.000000         -0.009833          0.000000
H             -0.799571         -0.580965          0.000000
H              0.799571         -0.580965          0.000000
O             -2.755514         -1.969460          0.000000
H             -3.712108         -1.744884          0.000000
H             -2.657720         -2.947183          0.000000

