%NProcShared=4 
%Mem=4GB  
%Chk=H2O_H2O_1503.chk 

#p CCSD(T)/cc-pVTZ 

H2O_H2O_1503

0 1
O             -0.000000         -0.009833          0.000000
H             -0.799571         -0.580965          0.000000
H              0.799571         -0.580965          0.000000
O             -2.636437         -1.891475          0.000000
H             -3.532067         -2.295644          0.000000
H             -1.963652         -2.607621          0.000000

