%NProcShared=4 
%Mem=4GB  
%Chk=H2O_H2O_238.chk 

#p CCSD(T)/cc-pVTZ 

H2O_H2O_238

0 1
O             -0.000000         -0.009833          0.000000
H             -0.799571         -0.580965          0.000000
H              0.799571         -0.580965          0.000000
O             -1.814238         -1.297109          0.000000
H             -2.770832         -1.072533          0.000000
H             -1.716444         -2.274832          0.000000

