%NProcShared=4 
%Mem=4GB  
%Chk=H2O_H2O_3770.chk 

#p CCSD(T)/cc-pVTZ 

H2O_H2O_3770

0 1
O             -0.000000         -0.009833          0.000000
H             -0.799571         -0.580965          0.000000
H              0.799571         -0.580965          0.000000
O             -4.104618         -2.927680          0.000000
H             -4.863233         -2.303173          0.000000
H             -4.449345         -3.847826          0.000000

