%NProcShared=4 
%Mem=4GB  
%Chk=H2O_H2O_1716.chk 

#p CCSD(T)/cc-pVTZ 

H2O_H2O_1716

0 1
O             -0.000000         -0.009833          0.000000
H             -0.799571         -0.580965          0.000000
H              0.799571         -0.580965          0.000000
O             -2.772866         -1.979485          0.000000
H             -3.667266         -1.572602          0.000000
H             -2.867695         -2.957501          0.000000

