%NProcShared=4 
%Mem=4GB  
%Chk=H2O_H2O_1014.chk 

#p CCSD(T)/cc-pVTZ 

H2O_H2O_1014

0 1
O             -0.000000         -0.009833          0.000000
H             -0.799571         -0.580965          0.000000
H              0.799571         -0.580965          0.000000
O             -2.317742         -1.655971          0.000000
H             -3.257600         -1.369312          0.000000
H             -2.284103         -2.637997          0.000000

