%NProcShared=4 
%Mem=4GB  
%Chk=H2O_H2O_3793.chk 

#p CCSD(T)/cc-pVTZ 

H2O_H2O_3793

0 1
O             -0.000000         -0.009833          0.000000
H             -0.799571         -0.580965          0.000000
H              0.799571         -0.580965          0.000000
O             -4.120433         -2.940490          0.000000
H             -4.954073         -2.420345          0.000000
H             -4.342108         -3.897760          0.000000

