%NProcShared=4 
%Mem=4GB  
%Chk=H2O_H2O_4223.chk 

#p CCSD(T)/cc-pVTZ 

H2O_H2O_4223

0 1
O             -0.000000         -0.009833          0.000000
H             -0.799571         -0.580965          0.000000
H              0.799571         -0.580965          0.000000
O             -4.397052         -3.134438          0.000000
H             -5.019256         -2.373933          0.000000
H             -4.914667         -3.969652          0.000000

