%NProcShared=4 
%Mem=4GB  
%Chk=H2O_H2O_3680.chk 

#p CCSD(T)/cc-pVTZ 

H2O_H2O_3680

0 1
O             -0.000000         -0.009833          0.000000
H             -0.799571         -0.580965          0.000000
H              0.799571         -0.580965          0.000000
O             -4.049594         -2.899669          0.000000
H             -4.990316         -3.183477          0.000000
H             -3.476040         -3.697505          0.000000

