%NProcShared=4 
%Mem=4GB  
%Chk=H2O_H2O_4423.chk 

#p CCSD(T)/cc-pVTZ 

H2O_H2O_4423

0 1
O             -0.000000         -0.009833          0.000000
H             -0.799571         -0.580965          0.000000
H              0.799571         -0.580965          0.000000
O             -4.526883         -3.227176          0.000000
H             -5.149087         -2.466671          0.000000
H             -5.044498         -4.062390          0.000000

