%NProcShared=4 
%Mem=4GB  
%Chk=H2O_H2O_2095.chk 

#p CCSD(T)/cc-pVTZ 

H2O_H2O_2095

0 1
O             -0.000000         -0.009833          0.000000
H             -0.799571         -0.580965          0.000000
H              0.799571         -0.580965          0.000000
O             -3.017282         -2.150998          0.000000
H             -3.775897         -1.526491          0.000000
H             -3.362008         -3.071144          0.000000

