%NProcShared=4 
%Mem=4GB  
%Chk=H2O_H2O_4859.chk 

#p CCSD(T)/cc-pVTZ 

H2O_H2O_4859

0 1
O             -0.000000         -0.009833          0.000000
H             -0.799571         -0.580965          0.000000
H              0.799571         -0.580965          0.000000
O             -4.814654         -3.443370          0.000000
H             -5.796778         -3.474031          0.000000
H             -4.467139         -4.362467          0.000000

