%NProcShared=4 
%Mem=4GB  
%Chk=H2O_H2O_1615.chk 

#p CCSD(T)/cc-pVTZ 

H2O_H2O_1615

0 1
O             -0.000000         -0.009833          0.000000
H             -0.799571         -0.580965          0.000000
H              0.799571         -0.580965          0.000000
O             -2.707611         -1.933663          0.000000
H             -3.626707         -1.586147          0.000000
H             -2.738271         -2.915786          0.000000

