%NProcShared=4 
%Mem=4GB  
%Chk=H2O_H2O_4598.chk 

#p CCSD(T)/cc-pVTZ 

H2O_H2O_4598

0 1
O             -0.000000         -0.009833          0.000000
H             -0.799571         -0.580965          0.000000
H              0.799571         -0.580965          0.000000
O             -4.640486         -3.308322          0.000000
H             -5.262689         -2.547817          0.000000
H             -5.158100         -4.143536          0.000000

