%NProcShared=4 
%Mem=4GB  
%Chk=H2O_H2O_4195.chk 

#p CCSD(T)/cc-pVTZ 

H2O_H2O_4195

0 1
O             -0.000000         -0.009833          0.000000
H             -0.799571         -0.580965          0.000000
H              0.799571         -0.580965          0.000000
O             -4.380509         -3.124748          0.000000
H             -5.139124         -2.500241          0.000000
H             -4.725236         -4.044895          0.000000

