%NProcShared=4 
%Mem=4GB  
%Chk=H2O_H2O_390.chk 

#p CCSD(T)/cc-pVTZ 

H2O_H2O_390

0 1
O             -0.000000         -0.009833          0.000000
H             -0.799571         -0.580965          0.000000
H              0.799571         -0.580965          0.000000
O             -1.912394         -1.365642          0.000000
H             -2.831491         -1.018126          0.000000
H             -1.943055         -2.347765          0.000000

