%NProcShared=4 
%Mem=4GB  
%Chk=H2O_H2O_4387.chk 

#p CCSD(T)/cc-pVTZ 

H2O_H2O_4387

0 1
O             -0.000000         -0.009833          0.000000
H             -0.799571         -0.580965          0.000000
H              0.799571         -0.580965          0.000000
O             -4.507795         -3.221894          0.000000
H             -5.477029         -3.060363          0.000000
H             -4.346264         -4.191128          0.000000

