%NProcShared=4 
%Mem=4GB  
%Chk=H2O_H2O_155.chk 

#p CCSD(T)/cc-pVTZ 

H2O_H2O_155

0 1
O             -0.000000         -0.009833          0.000000
H             -0.799571         -0.580965          0.000000
H              0.799571         -0.580965          0.000000
O             -1.761319         -1.265160          0.000000
H             -2.702042         -1.548968          0.000000
H             -1.187765         -2.062996          0.000000

