%NProcShared=4 
%Mem=4GB  
%Chk=H2O_H2O_792.chk 

#p CCSD(T)/cc-pVTZ 

H2O_H2O_792

0 1
O             -0.000000         -0.009833          0.000000
H             -0.799571         -0.580965          0.000000
H              0.799571         -0.580965          0.000000
O             -2.172700         -1.550004          0.000000
H             -3.038574         -1.085495          0.000000
H             -2.331291         -2.519723          0.000000

