%NProcShared=4 
%Mem=4GB  
%Chk=H2O_H2O_1115.chk 

#p CCSD(T)/cc-pVTZ 

H2O_H2O_1115

0 1
O             -0.000000         -0.009833          0.000000
H             -0.799571         -0.580965          0.000000
H              0.799571         -0.580965          0.000000
O             -2.383032         -1.701817          0.000000
H             -3.302129         -1.354302          0.000000
H             -2.413693         -2.683941          0.000000

