%NProcShared=4 
%Mem=4GB  
%Chk=H2O_H2O_3.chk 

#p CCSD(T)/cc-pVTZ 

H2O_H2O_3

0 1
O             -0.000000         -0.009833          0.000000
H             -0.799571         -0.580965          0.000000
H              0.799571         -0.580965          0.000000
O             -1.662703         -1.195939          0.000000
H             -2.558333         -1.600108          0.000000
H             -0.989918         -1.912086          0.000000

