%NProcShared=4 
%Mem=4GB  
%Chk=H2O_H2O_154.chk 

#p CCSD(T)/cc-pVTZ 

H2O_H2O_154

0 1
O             -0.000000         -0.009833          0.000000
H             -0.799571         -0.580965          0.000000
H              0.799571         -0.580965          0.000000
O             -1.760703         -1.265346          0.000000
H             -2.680850         -1.610073          0.000000
H             -1.136197         -2.023962          0.000000

