%NProcShared=4 
%Mem=4GB  
%Chk=H2O_H2O_2945.chk 

#p CCSD(T)/cc-pVTZ 

H2O_H2O_2945

0 1
O             -0.000000         -0.009833          0.000000
H             -0.799571         -0.580965          0.000000
H              0.799571         -0.580965          0.000000
O             -3.569064         -2.545135          0.000000
H             -4.327680         -1.920628          0.000000
H             -3.913791         -3.465281          0.000000

