%NProcShared=4 
%Mem=4GB  
%Chk=H2O_H2O_175.chk 

#p CCSD(T)/cc-pVTZ 

H2O_H2O_175

0 1
O             -0.000000         -0.009833          0.000000
H             -0.799571         -0.580965          0.000000
H              0.799571         -0.580965          0.000000
O             -1.774387         -1.277274          0.000000
H             -2.573959         -1.848406          0.000000
H             -0.974816         -1.848406          0.000000

