%NProcShared=4 
%Mem=4GB  
%Chk=H2O_H2O_916.chk 

#p CCSD(T)/cc-pVTZ 

H2O_H2O_916

0 1
O             -0.000000         -0.009833          0.000000
H             -0.799571         -0.580965          0.000000
H              0.799571         -0.580965          0.000000
O             -2.253541         -1.608533          0.000000
H             -3.147942         -1.201650          0.000000
H             -2.348370         -2.586548          0.000000

