%NProcShared=4 
%Mem=4GB  
%Chk=H2O_H2O_1549.chk 

#p CCSD(T)/cc-pVTZ 

H2O_H2O_1549

0 1
O             -0.000000         -0.009833          0.000000
H             -0.799571         -0.580965          0.000000
H              0.799571         -0.580965          0.000000
O             -2.660581         -1.893423          0.000000
H             -3.231713         -1.093852          0.000000
H             -3.231713         -2.692994          0.000000

