%NProcShared=4 
%Mem=4GB  
%Chk=H2O_H2O_1351.chk 

#p CCSD(T)/cc-pVTZ 

H2O_H2O_1351

0 1
O             -0.000000         -0.009833          0.000000
H             -0.799571         -0.580965          0.000000
H              0.799571         -0.580965          0.000000
O             -2.537788         -1.822089          0.000000
H             -3.373002         -2.339704          0.000000
H             -1.777283         -2.444293          0.000000

