%NProcShared=4 
%Mem=4GB  
%Chk=H2O_H2O_1898.chk 

#p CCSD(T)/cc-pVTZ 

H2O_H2O_1898

0 1
O             -0.000000         -0.009833          0.000000
H             -0.799571         -0.580965          0.000000
H              0.799571         -0.580965          0.000000
O             -2.887765         -2.056358          0.000000
H             -3.509968         -1.295852          0.000000
H             -3.405379         -2.891571          0.000000

