%NProcShared=4 
%Mem=4GB  
%Chk=H2O_H2O_3143.chk 

#p CCSD(T)/cc-pVTZ 

H2O_H2O_3143

0 1
O             -0.000000         -0.009833          0.000000
H             -0.799571         -0.580965          0.000000
H              0.799571         -0.580965          0.000000
O             -3.698482         -2.639091          0.000000
H             -4.532122         -2.118946          0.000000
H             -3.920156         -3.596361          0.000000

