%NProcShared=4 
%Mem=4GB  
%Chk=H2O_H2O_1814.chk 

#p CCSD(T)/cc-pVTZ 

H2O_H2O_1814

0 1
O             -0.000000         -0.009833          0.000000
H             -0.799571         -0.580965          0.000000
H              0.799571         -0.580965          0.000000
O             -2.837067         -2.026924          0.000000
H             -3.776924         -1.740264          0.000000
H             -2.803428         -3.008950          0.000000

