%NProcShared=4 
%Mem=4GB  
%Chk=H2O_H2O_2028.chk 

#p CCSD(T)/cc-pVTZ 

H2O_H2O_2028

0 1
O             -0.000000         -0.009833          0.000000
H             -0.799571         -0.580965          0.000000
H              0.799571         -0.580965          0.000000
O             -2.977244         -2.134912          0.000000
H             -3.872874         -2.539082          0.000000
H             -2.304458         -2.851059          0.000000

