%NProcShared=4 
%Mem=4GB  
%Chk=H2O_H2O_3899.chk 

#p CCSD(T)/cc-pVTZ 

H2O_H2O_3899

0 1
O             -0.000000         -0.009833          0.000000
H             -0.799571         -0.580965          0.000000
H              0.799571         -0.580965          0.000000
O             -4.186097         -2.983096          0.000000
H             -4.757229         -2.183524          0.000000
H             -4.757229         -3.782667          0.000000

