%NProcShared=4 
%Mem=4GB  
%Chk=H2O_H2O_4251.chk 

#p CCSD(T)/cc-pVTZ 

H2O_H2O_4251

0 1
O             -0.000000         -0.009833          0.000000
H             -0.799571         -0.580965          0.000000
H              0.799571         -0.580965          0.000000
O             -4.420341         -3.166792          0.000000
H             -5.255554         -3.684407          0.000000
H             -3.659835         -3.788996          0.000000

