%NProcShared=4 
%Mem=4GB  
%Chk=H2O_H2O_1136.chk 

#p CCSD(T)/cc-pVTZ 

H2O_H2O_1136

0 1
O             -0.000000         -0.009833          0.000000
H             -0.799571         -0.580965          0.000000
H              0.799571         -0.580965          0.000000
O             -2.397569         -1.715340          0.000000
H             -3.375292         -1.617545          0.000000
H             -2.172993         -2.671933          0.000000

