%NProcShared=4 
%Mem=4GB  
%Chk=H2O_H2O_4105.chk 

#p CCSD(T)/cc-pVTZ 

H2O_H2O_4105

0 1
O             -0.000000         -0.009833          0.000000
H             -0.799571         -0.580965          0.000000
H              0.799571         -0.580965          0.000000
O             -4.325485         -3.096738          0.000000
H             -5.266207         -3.380546          0.000000
H             -3.751931         -3.894574          0.000000

