%NProcShared=4 
%Mem=4GB  
%Chk=H2O_H2O_379.chk 

#p CCSD(T)/cc-pVTZ 

H2O_H2O_379

0 1
O             -0.000000         -0.009833          0.000000
H             -0.799571         -0.580965          0.000000
H              0.799571         -0.580965          0.000000
O             -1.906763         -1.369677          0.000000
H             -2.826910         -1.714404          0.000000
H             -1.282257         -2.128292          0.000000

