%NProcShared=4 
%Mem=4GB  
%Chk=H2O_H2O_1561.chk 

#p CCSD(T)/cc-pVTZ 

H2O_H2O_1561

0 1
O             -0.000000         -0.009833          0.000000
H             -0.799571         -0.580965          0.000000
H              0.799571         -0.580965          0.000000
O             -2.673460         -1.912408          0.000000
H             -3.651183         -1.814614          0.000000
H             -2.448884         -2.869002          0.000000

