%NProcShared=4 
%Mem=4GB  
%Chk=H2O_H2O_1905.chk 

#p CCSD(T)/cc-pVTZ 

H2O_H2O_1905

0 1
O             -0.000000         -0.009833          0.000000
H             -0.799571         -0.580965          0.000000
H              0.799571         -0.580965          0.000000
O             -2.897342         -2.076618          0.000000
H             -3.838064         -2.360426          0.000000
H             -2.323788         -2.874454          0.000000

