%NProcShared=4 
%Mem=4GB  
%Chk=H2O_H2O_1284.chk 

#p CCSD(T)/cc-pVTZ 

H2O_H2O_1284

0 1
O             -0.000000         -0.009833          0.000000
H             -0.799571         -0.580965          0.000000
H              0.799571         -0.580965          0.000000
O             -2.493922         -1.785676          0.000000
H             -3.476045         -1.816337          0.000000
H             -2.146406         -2.704773          0.000000

