%NProcShared=4 
%Mem=4GB  
%Chk=H2O_H2O_3948.chk 

#p CCSD(T)/cc-pVTZ 

H2O_H2O_3948

0 1
O             -0.000000         -0.009833          0.000000
H             -0.799571         -0.580965          0.000000
H              0.799571         -0.580965          0.000000
O             -4.218534         -3.006923          0.000000
H             -4.840738         -2.246418          0.000000
H             -4.736149         -3.842137          0.000000

