%NProcShared=4 
%Mem=4GB  
%Chk=H2O_H2O_2721.chk 

#p CCSD(T)/cc-pVTZ 

H2O_H2O_2721

0 1
O             -0.000000         -0.009833          0.000000
H             -0.799571         -0.580965          0.000000
H              0.799571         -0.580965          0.000000
O             -3.423150         -2.440178          0.000000
H             -4.139297         -1.767392          0.000000
H             -3.827319         -3.335808          0.000000

