%NProcShared=4 
%Mem=4GB  
%Chk=H2O_H2O_2191.chk 

#p CCSD(T)/cc-pVTZ 

H2O_H2O_2191

0 1
O             -0.000000         -0.009833          0.000000
H             -0.799571         -0.580965          0.000000
H              0.799571         -0.580965          0.000000
O             -3.081215         -2.199738          0.000000
H             -3.975615         -1.792855          0.000000
H             -3.176044         -3.177754          0.000000

