%NProcShared=4 
%Mem=4GB  
%Chk=H2O_H2O_2331.chk 

#p CCSD(T)/cc-pVTZ 

H2O_H2O_2331

0 1
O             -0.000000         -0.009833          0.000000
H             -0.799571         -0.580965          0.000000
H              0.799571         -0.580965          0.000000
O             -3.173835         -2.273460          0.000000
H             -4.131106         -2.495134          0.000000
H             -2.653690         -3.107100          0.000000

