%NProcShared=4 
%Mem=4GB  
%Chk=H2O_H2O_3058.chk 

#p CCSD(T)/cc-pVTZ 

H2O_H2O_3058

0 1
O             -0.000000         -0.009833          0.000000
H             -0.799571         -0.580965          0.000000
H              0.799571         -0.580965          0.000000
O             -3.645627         -2.609067          0.000000
H             -4.623642         -2.703896          0.000000
H             -3.238744         -3.503467          0.000000

