%NProcShared=4 
%Mem=4GB  
%Chk=H2O_H2O_794.chk 

#p CCSD(T)/cc-pVTZ 

H2O_H2O_794

0 1
O             -0.000000         -0.009833          0.000000
H             -0.799571         -0.580965          0.000000
H              0.799571         -0.580965          0.000000
O             -2.173192         -1.548816          0.000000
H             -2.971028         -0.975262          0.000000
H             -2.457000         -2.489538          0.000000

