%NProcShared=4 
%Mem=4GB  
%Chk=H2O_H2O_285.chk 

#p CCSD(T)/cc-pVTZ 

H2O_H2O_285

0 1
O             -0.000000         -0.009833          0.000000
H             -0.799571         -0.580965          0.000000
H              0.799571         -0.580965          0.000000
O             -1.845289         -1.321611          0.000000
H             -2.827315         -1.287972          0.000000
H             -1.558629         -2.261469          0.000000

