%NProcShared=4 
%Mem=4GB  
%Chk=H2O_H2O_1392.chk 

#p CCSD(T)/cc-pVTZ 

H2O_H2O_1392

0 1
O             -0.000000         -0.009833          0.000000
H             -0.799571         -0.580965          0.000000
H              0.799571         -0.580965          0.000000
O             -2.562193         -1.828218          0.000000
H             -3.428067         -1.363710          0.000000
H             -2.720785         -2.797937          0.000000

