%NProcShared=4 
%Mem=4GB  
%Chk=H2O_H2O_383.chk 

#p CCSD(T)/cc-pVTZ 

H2O_H2O_383

0 1
O             -0.000000         -0.009833          0.000000
H             -0.799571         -0.580965          0.000000
H              0.799571         -0.580965          0.000000
O             -1.909135         -1.368695          0.000000
H             -2.887150         -1.463524          0.000000
H             -1.502252         -2.263095          0.000000

