%NProcShared=4 
%Mem=4GB  
%Chk=H2O_H2O_913.chk 

#p CCSD(T)/cc-pVTZ 

H2O_H2O_913

0 1
O             -0.000000         -0.009833          0.000000
H             -0.799571         -0.580965          0.000000
H              0.799571         -0.580965          0.000000
O             -2.252418         -1.610100          0.000000
H             -3.209012         -1.385524          0.000000
H             -2.154624         -2.587823          0.000000

