%NProcShared=4 
%Mem=4GB  
%Chk=H2O_H2O_2148.chk 

#p CCSD(T)/cc-pVTZ 

H2O_H2O_2148

0 1
O             -0.000000         -0.009833          0.000000
H             -0.799571         -0.580965          0.000000
H              0.799571         -0.580965          0.000000
O             -3.050053         -2.172280          0.000000
H             -3.672257         -1.411775          0.000000
H             -3.567668         -3.007494          0.000000

