%NProcShared=4 
%Mem=4GB  
%Chk=H2O_H2O_921.chk 

#p CCSD(T)/cc-pVTZ 

H2O_H2O_921

0 1
O             -0.000000         -0.009833          0.000000
H             -0.799571         -0.580965          0.000000
H              0.799571         -0.580965          0.000000
O             -2.254670         -1.605535          0.000000
H             -2.970816         -0.932749          0.000000
H             -2.658839         -2.501165          0.000000

