%NProcShared=4 
%Mem=4GB  
%Chk=H2O_H2O_3323.chk 

#p CCSD(T)/cc-pVTZ 

H2O_H2O_3323

0 1
O             -0.000000         -0.009833          0.000000
H             -0.799571         -0.580965          0.000000
H              0.799571         -0.580965          0.000000
O             -3.812812         -2.717117          0.000000
H             -4.435015         -1.956611          0.000000
H             -4.330426         -3.552330          0.000000

