%NProcShared=4 
%Mem=4GB  
%Chk=H2O_H2O_1148.chk 

#p CCSD(T)/cc-pVTZ 

H2O_H2O_1148

0 1
O             -0.000000         -0.009833          0.000000
H             -0.799571         -0.580965          0.000000
H              0.799571         -0.580965          0.000000
O             -2.400897         -1.708590          0.000000
H             -3.023101         -0.948084          0.000000
H             -2.918512         -2.543803          0.000000

