%NProcShared=4 
%Mem=4GB  
%Chk=H2O_H2O_597.chk 

#p CCSD(T)/cc-pVTZ 

H2O_H2O_597

0 1
O             -0.000000         -0.009833          0.000000
H             -0.799571         -0.580965          0.000000
H              0.799571         -0.580965          0.000000
O             -2.043799         -1.454200          0.000000
H             -2.714410         -0.736017          0.000000
H             -2.505679         -2.321479          0.000000

