%NProcShared=4 
%Mem=4GB  
%Chk=H2O_H2O_4777.chk 

#p CCSD(T)/cc-pVTZ 

H2O_H2O_4777

0 1
O             -0.000000         -0.009833          0.000000
H             -0.799571         -0.580965          0.000000
H              0.799571         -0.580965          0.000000
O             -4.761788         -3.410166          0.000000
H             -5.629067         -3.872047          0.000000
H             -4.043605         -4.080777          0.000000

