%NProcShared=4 
%Mem=4GB  
%Chk=H2O_H2O_2158.chk 

#p CCSD(T)/cc-pVTZ 

H2O_H2O_2158

0 1
O             -0.000000         -0.009833          0.000000
H             -0.799571         -0.580965          0.000000
H              0.799571         -0.580965          0.000000
O             -3.061387         -2.191745          0.000000
H             -4.039402         -2.286575          0.000000
H             -2.654504         -3.086146          0.000000

