%NProcShared=4 
%Mem=4GB  
%Chk=H2O_H2O_3636.chk 

#p CCSD(T)/cc-pVTZ 

H2O_H2O_3636

0 1
O             -0.000000         -0.009833          0.000000
H             -0.799571         -0.580965          0.000000
H              0.799571         -0.580965          0.000000
O             -4.020459         -2.874566          0.000000
H             -4.998182         -2.776772          0.000000
H             -3.795883         -3.831160          0.000000

