%NProcShared=4 
%Mem=4GB  
%Chk=H2O_H2O_2688.chk 

#p CCSD(T)/cc-pVTZ 

H2O_H2O_2688

0 1
O             -0.000000         -0.009833          0.000000
H             -0.799571         -0.580965          0.000000
H              0.799571         -0.580965          0.000000
O             -3.404670         -2.433151          0.000000
H             -4.361264         -2.208574          0.000000
H             -3.306876         -3.410874          0.000000

