%NProcShared=4 
%Mem=4GB  
%Chk=H2O_H2O_3003.chk 

#p CCSD(T)/cc-pVTZ 

H2O_H2O_3003

0 1
O             -0.000000         -0.009833          0.000000
H             -0.799571         -0.580965          0.000000
H              0.799571         -0.580965          0.000000
O             -3.610171         -2.587011          0.000000
H             -4.505801         -2.991180          0.000000
H             -2.937386         -3.303157          0.000000

