%NProcShared=4 
%Mem=4GB  
%Chk=H2O_H2O_3439.chk 

#p CCSD(T)/cc-pVTZ 

H2O_H2O_3439

0 1
O             -0.000000         -0.009833          0.000000
H             -0.799571         -0.580965          0.000000
H              0.799571         -0.580965          0.000000
O             -3.891945         -2.780421          0.000000
H             -4.831803         -2.493762          0.000000
H             -3.858306         -3.762447          0.000000

