%NProcShared=4 
%Mem=4GB  
%Chk=H2O_H2O_3413.chk 

#p CCSD(T)/cc-pVTZ 

H2O_H2O_3413

0 1
O             -0.000000         -0.009833          0.000000
H             -0.799571         -0.580965          0.000000
H              0.799571         -0.580965          0.000000
O             -3.875308         -2.769326          0.000000
H             -4.831902         -2.544750          0.000000
H             -3.777514         -3.747049          0.000000

