%NProcShared=4 
%Mem=4GB  
%Chk=H2O_H2O_1157.chk 

#p CCSD(T)/cc-pVTZ 

H2O_H2O_1157

0 1
O             -0.000000         -0.009833          0.000000
H             -0.799571         -0.580965          0.000000
H              0.799571         -0.580965          0.000000
O             -2.411663         -1.728358          0.000000
H             -3.381382         -1.886949          0.000000
H             -1.947155         -2.594232          0.000000

