%NProcShared=4 
%Mem=4GB  
%Chk=H2O_H2O_957.chk 

#p CCSD(T)/cc-pVTZ 

H2O_H2O_957

0 1
O             -0.000000         -0.009833          0.000000
H             -0.799571         -0.580965          0.000000
H              0.799571         -0.580965          0.000000
O             -2.281832         -1.635620          0.000000
H             -3.251551         -1.794211          0.000000
H             -1.817324         -2.501494          0.000000

