%NProcShared=4 
%Mem=4GB  
%Chk=H2O_H2O_4393.chk 

#p CCSD(T)/cc-pVTZ 

H2O_H2O_4393

0 1
O             -0.000000         -0.009833          0.000000
H             -0.799571         -0.580965          0.000000
H              0.799571         -0.580965          0.000000
O             -4.509927         -3.218704          0.000000
H             -5.343567         -2.698559          0.000000
H             -4.731601         -4.175975          0.000000

