%NProcShared=4 
%Mem=4GB  
%Chk=H2O_H2O_1435.chk 

#p CCSD(T)/cc-pVTZ 

H2O_H2O_1435

0 1
O             -0.000000         -0.009833          0.000000
H             -0.799571         -0.580965          0.000000
H              0.799571         -0.580965          0.000000
O             -2.591818         -1.854855          0.000000
H             -3.573844         -1.821216          0.000000
H             -2.305159         -2.794713          0.000000

