%NProcShared=4 
%Mem=4GB  
%Chk=H2O_H2O_2281.chk 

#p CCSD(T)/cc-pVTZ 

H2O_H2O_2281

0 1
O             -0.000000         -0.009833          0.000000
H             -0.799571         -0.580965          0.000000
H              0.799571         -0.580965          0.000000
O             -3.141378         -2.250276          0.000000
H             -4.098648         -2.471950          0.000000
H             -2.621233         -3.083915          0.000000

