%NProcShared=4 
%Mem=4GB  
%Chk=H2O_H2O_2552.chk 

#p CCSD(T)/cc-pVTZ 

H2O_H2O_2552

0 1
O             -0.000000         -0.009833          0.000000
H             -0.799571         -0.580965          0.000000
H              0.799571         -0.580965          0.000000
O             -3.317416         -2.378455          0.000000
H             -4.184695         -2.840336          0.000000
H             -2.599233         -3.049066          0.000000

