%NProcShared=4 
%Mem=4GB  
%Chk=H2O_H2O_3842.chk 

#p CCSD(T)/cc-pVTZ 

H2O_H2O_3842

0 1
O             -0.000000         -0.009833          0.000000
H             -0.799571         -0.580965          0.000000
H              0.799571         -0.580965          0.000000
O             -4.152626         -2.964261          0.000000
H             -5.018500         -2.499752          0.000000
H             -4.311217         -3.933980          0.000000

