%NProcShared=4 
%Mem=4GB  
%Chk=H2O_H2O_1244.chk 

#p CCSD(T)/cc-pVTZ 

H2O_H2O_1244

0 1
O             -0.000000         -0.009833          0.000000
H             -0.799571         -0.580965          0.000000
H              0.799571         -0.580965          0.000000
O             -2.465312         -1.757477          0.000000
H             -3.263148         -1.183923          0.000000
H             -2.749120         -2.698199          0.000000

