%NProcShared=4 
%Mem=4GB  
%Chk=H2O_H2O_4953.chk 

#p CCSD(T)/cc-pVTZ 

H2O_H2O_4953

0 1
O             -0.000000         -0.009833          0.000000
H             -0.799571         -0.580965          0.000000
H              0.799571         -0.580965          0.000000
O             -4.876025         -3.491208          0.000000
H             -5.771655         -3.895377          0.000000
H             -4.203240         -4.207354          0.000000

