%NProcShared=4 
%Mem=4GB  
%Chk=H2O_H2O_3339.chk 

#p CCSD(T)/cc-pVTZ 

H2O_H2O_3339

0 1
O             -0.000000         -0.009833          0.000000
H             -0.799571         -0.580965          0.000000
H              0.799571         -0.580965          0.000000
O             -3.827030         -2.734052          0.000000
H             -4.766887         -2.447393          0.000000
H             -3.793391         -3.716078          0.000000

