%NProcShared=4 
%Mem=4GB  
%Chk=H2O_H2O_3700.chk 

#p CCSD(T)/cc-pVTZ 

H2O_H2O_3700

0 1
O             -0.000000         -0.009833          0.000000
H             -0.799571         -0.580965          0.000000
H              0.799571         -0.580965          0.000000
O             -4.062662         -2.911783          0.000000
H             -4.862233         -3.482915          0.000000
H             -3.263091         -3.482915          0.000000

