%NProcShared=4 
%Mem=4GB  
%Chk=H2O_H2O_4857.chk 

#p CCSD(T)/cc-pVTZ 

H2O_H2O_4857

0 1
O             -0.000000         -0.009833          0.000000
H             -0.799571         -0.580965          0.000000
H              0.799571         -0.580965          0.000000
O             -4.813541         -3.444013          0.000000
H             -5.783260         -3.602605          0.000000
H             -4.349032         -4.309887          0.000000

