%NProcShared=4 
%Mem=4GB  
%Chk=H2O_H2O_4942.chk 

#p CCSD(T)/cc-pVTZ 

H2O_H2O_4942

0 1
O             -0.000000         -0.009833          0.000000
H             -0.799571         -0.580965          0.000000
H              0.799571         -0.580965          0.000000
O             -4.866697         -3.474320          0.000000
H             -5.732571         -3.009812          0.000000
H             -5.025288         -4.444039          0.000000

