%NProcShared=4 
%Mem=4GB  
%Chk=H2O_H2O_3283.chk 

#p CCSD(T)/cc-pVTZ 

H2O_H2O_3283

0 1
O             -0.000000         -0.009833          0.000000
H             -0.799571         -0.580965          0.000000
H              0.799571         -0.580965          0.000000
O             -3.791687         -2.713397          0.000000
H             -4.769702         -2.808226          0.000000
H             -3.384804         -3.607798          0.000000

