%NProcShared=4 
%Mem=4GB  
%Chk=H2O_H2O_1144.chk 

#p CCSD(T)/cc-pVTZ 

H2O_H2O_1144

0 1
O             -0.000000         -0.009833          0.000000
H             -0.799571         -0.580965          0.000000
H              0.799571         -0.580965          0.000000
O             -2.400397         -1.711107          0.000000
H             -3.198233         -1.137554          0.000000
H             -2.684205         -2.651830          0.000000

