%NProcShared=4 
%Mem=4GB  
%Chk=H2O_H2O_1091.chk 

#p CCSD(T)/cc-pVTZ 

H2O_H2O_1091

0 1
O             -0.000000         -0.009833          0.000000
H             -0.799571         -0.580965          0.000000
H              0.799571         -0.580965          0.000000
O             -2.367143         -1.689679          0.000000
H             -3.261544         -1.282796          0.000000
H             -2.461972         -2.667694          0.000000

