%NProcShared=4 
%Mem=4GB  
%Chk=H2O_H2O_2099.chk 

#p CCSD(T)/cc-pVTZ 

H2O_H2O_2099

0 1
O             -0.000000         -0.009833          0.000000
H             -0.799571         -0.580965          0.000000
H              0.799571         -0.580965          0.000000
O             -3.017617         -2.148453          0.000000
H             -3.588749         -1.348881          0.000000
H             -3.588749         -2.948024          0.000000

