%NProcShared=4 
%Mem=4GB  
%Chk=H2O_H2O_1247.chk 

#p CCSD(T)/cc-pVTZ 

H2O_H2O_1247

0 1
O             -0.000000         -0.009833          0.000000
H             -0.799571         -0.580965          0.000000
H              0.799571         -0.580965          0.000000
O             -2.465750         -1.755599          0.000000
H             -3.136361         -1.037416          0.000000
H             -2.927631         -2.622878          0.000000

