%NProcShared=4 
%Mem=4GB  
%Chk=H2O_H2O_1330.chk 

#p CCSD(T)/cc-pVTZ 

H2O_H2O_1330

0 1
O             -0.000000         -0.009833          0.000000
H             -0.799571         -0.580965          0.000000
H              0.799571         -0.580965          0.000000
O             -2.524077         -1.809996          0.000000
H             -3.464800         -2.093804          0.000000
H             -1.950523         -2.607832          0.000000

