%NProcShared=4 
%Mem=4GB  
%Chk=H2O_H2O_746.chk 

#p CCSD(T)/cc-pVTZ 

H2O_H2O_746

0 1
O             -0.000000         -0.009833          0.000000
H             -0.799571         -0.580965          0.000000
H              0.799571         -0.580965          0.000000
O             -2.141067         -1.524389          0.000000
H             -2.857214         -0.851603          0.000000
H             -2.545236         -2.420019          0.000000

