%NProcShared=4 
%Mem=4GB  
%Chk=H2O_H2O_989.chk 

#p CCSD(T)/cc-pVTZ 

H2O_H2O_989

0 1
O             -0.000000         -0.009833          0.000000
H             -0.799571         -0.580965          0.000000
H              0.799571         -0.580965          0.000000
O             -2.301513         -1.644379          0.000000
H             -3.241371         -1.357720          0.000000
H             -2.267874         -2.626405          0.000000

