%NProcShared=4 
%Mem=4GB  
%Chk=H2O_H2O_606.chk 

#p CCSD(T)/cc-pVTZ 

H2O_H2O_606

0 1
O             -0.000000         -0.009833          0.000000
H             -0.799571         -0.580965          0.000000
H              0.799571         -0.580965          0.000000
O             -2.054041         -1.473594          0.000000
H             -3.011312         -1.695268          0.000000
H             -1.533897         -2.307234          0.000000

