%NProcShared=4 
%Mem=4GB  
%Chk=H2O_H2O_2917.chk 

#p CCSD(T)/cc-pVTZ 

H2O_H2O_2917

0 1
O             -0.000000         -0.009833          0.000000
H             -0.799571         -0.580965          0.000000
H              0.799571         -0.580965          0.000000
O             -3.552156         -2.535347          0.000000
H             -4.418030         -2.070838          0.000000
H             -3.710748         -3.505066          0.000000

