%NProcShared=4 
%Mem=4GB  
%Chk=H2O_H2O_3815.chk 

#p CCSD(T)/cc-pVTZ 

H2O_H2O_3815

0 1
O             -0.000000         -0.009833          0.000000
H             -0.799571         -0.580965          0.000000
H              0.799571         -0.580965          0.000000
O             -4.135754         -2.953782          0.000000
H             -5.054850         -2.606267          0.000000
H             -4.166414         -3.935905          0.000000

