%NProcShared=4 
%Mem=4GB  
%Chk=H2O_H2O_2462.chk 

#p CCSD(T)/cc-pVTZ 

H2O_H2O_2462

0 1
O             -0.000000         -0.009833          0.000000
H             -0.799571         -0.580965          0.000000
H              0.799571         -0.580965          0.000000
O             -3.258170         -2.329290          0.000000
H             -4.227404         -2.167759          0.000000
H             -3.096639         -3.298523          0.000000

