%NProcShared=4 
%Mem=4GB  
%Chk=H2O_H2O_586.chk 

#p CCSD(T)/cc-pVTZ 

H2O_H2O_586

0 1
O             -0.000000         -0.009833          0.000000
H             -0.799571         -0.580965          0.000000
H              0.799571         -0.580965          0.000000
O             -2.040533         -1.460310          0.000000
H             -3.018256         -1.362516          0.000000
H             -1.815957         -2.416904          0.000000

