%NProcShared=4 
%Mem=4GB  
%Chk=H2O_H2O_3271.chk 

#p CCSD(T)/cc-pVTZ 

H2O_H2O_3271

0 1
O             -0.000000         -0.009833          0.000000
H             -0.799571         -0.580965          0.000000
H              0.799571         -0.580965          0.000000
O             -3.780186         -2.695208          0.000000
H             -4.496333         -2.022422          0.000000
H             -4.184355         -3.590838          0.000000

