%NProcShared=4 
%Mem=4GB  
%Chk=H2O_H2O_369.chk 

#p CCSD(T)/cc-pVTZ 

H2O_H2O_369

0 1
O             -0.000000         -0.009833          0.000000
H             -0.799571         -0.580965          0.000000
H              0.799571         -0.580965          0.000000
O             -1.897301         -1.351747          0.000000
H             -2.695137         -0.778193          0.000000
H             -2.181109         -2.292470          0.000000

