%NProcShared=4 
%Mem=4GB  
%Chk=H2O_H2O_3621.chk 

#p CCSD(T)/cc-pVTZ 

H2O_H2O_3621

0 1
O             -0.000000         -0.009833          0.000000
H             -0.799571         -0.580965          0.000000
H              0.799571         -0.580965          0.000000
O             -4.007390         -2.857499          0.000000
H             -4.723537         -2.184714          0.000000
H             -4.411560         -3.753130          0.000000

