%NProcShared=4 
%Mem=4GB  
%Chk=H2O_H2O_451.chk 

#p CCSD(T)/cc-pVTZ 

H2O_H2O_451

0 1
O             -0.000000         -0.009833          0.000000
H             -0.799571         -0.580965          0.000000
H              0.799571         -0.580965          0.000000
O             -1.953548         -1.404768          0.000000
H             -2.788762         -1.922382          0.000000
H             -1.193043         -2.026971          0.000000

