%NProcShared=4 
%Mem=4GB  
%Chk=H2O_H2O_3659.chk 

#p CCSD(T)/cc-pVTZ 

H2O_H2O_3659

0 1
O             -0.000000         -0.009833          0.000000
H             -0.799571         -0.580965          0.000000
H              0.799571         -0.580965          0.000000
O             -4.035667         -2.886941          0.000000
H             -5.017790         -2.917602          0.000000
H             -3.688152         -3.806038          0.000000

