%NProcShared=4 
%Mem=4GB  
%Chk=H2O_H2O_1728.chk 

#p CCSD(T)/cc-pVTZ 

H2O_H2O_1728

0 1
O             -0.000000         -0.009833          0.000000
H             -0.799571         -0.580965          0.000000
H              0.799571         -0.580965          0.000000
O             -2.782497         -1.995805          0.000000
H             -3.678128         -2.399974          0.000000
H             -2.109712         -2.711952          0.000000

