%NProcShared=4 
%Mem=4GB  
%Chk=H2O_H2O_4542.chk 

#p CCSD(T)/cc-pVTZ 

H2O_H2O_4542

0 1
O             -0.000000         -0.009833          0.000000
H             -0.799571         -0.580965          0.000000
H              0.799571         -0.580965          0.000000
O             -4.607035         -3.288844          0.000000
H             -5.472909         -2.824335          0.000000
H             -4.765626         -4.258563          0.000000

