%NProcShared=4 
%Mem=4GB  
%Chk=H2O_H2O_4910.chk 

#p CCSD(T)/cc-pVTZ 

H2O_H2O_4910

0 1
O             -0.000000         -0.009833          0.000000
H             -0.799571         -0.580965          0.000000
H              0.799571         -0.580965          0.000000
O             -4.847635         -3.466180          0.000000
H             -5.829661         -3.432541          0.000000
H             -4.560975         -4.406037          0.000000

