%NProcShared=4 
%Mem=4GB  
%Chk=H2O_H2O_4649.chk 

#p CCSD(T)/cc-pVTZ 

H2O_H2O_4649

0 1
O             -0.000000         -0.009833          0.000000
H             -0.799571         -0.580965          0.000000
H              0.799571         -0.580965          0.000000
O             -4.672964         -3.330864          0.000000
H             -5.244096         -2.531292          0.000000
H             -5.244096         -4.130435          0.000000

