%NProcShared=4 
%Mem=4GB  
%Chk=H2O_H2O_1516.chk 

#p CCSD(T)/cc-pVTZ 

H2O_H2O_1516

0 1
O             -0.000000         -0.009833          0.000000
H             -0.799571         -0.580965          0.000000
H              0.799571         -0.580965          0.000000
O             -2.643035         -1.886747          0.000000
H             -3.537435         -1.479864          0.000000
H             -2.737864         -2.864762          0.000000

