%NProcShared=4 
%Mem=4GB  
%Chk=H2O_H2O_2851.chk 

#p CCSD(T)/cc-pVTZ 

H2O_H2O_2851

0 1
O             -0.000000         -0.009833          0.000000
H             -0.799571         -0.580965          0.000000
H              0.799571         -0.580965          0.000000
O             -3.511523         -2.517625          0.000000
H             -4.346736         -3.035240          0.000000
H             -2.751017         -3.139829          0.000000

