%NProcShared=4 
%Mem=4GB  
%Chk=H2O_H2O_279.chk 

#p CCSD(T)/cc-pVTZ 

H2O_H2O_279

0 1
O             -0.000000         -0.009833          0.000000
H             -0.799571         -0.580965          0.000000
H              0.799571         -0.580965          0.000000
O             -1.841848         -1.323308          0.000000
H             -2.761994         -1.668035          0.000000
H             -1.217341         -2.081923          0.000000

