%NProcShared=4 
%Mem=4GB  
%Chk=H2O_H2O_3846.chk 

#p CCSD(T)/cc-pVTZ 

H2O_H2O_3846

0 1
O             -0.000000         -0.009833          0.000000
H             -0.799571         -0.580965          0.000000
H              0.799571         -0.580965          0.000000
O             -4.153451         -2.961830          0.000000
H             -4.869597         -2.289044          0.000000
H             -4.557620         -3.857460          0.000000

