%NProcShared=4 
%Mem=4GB  
%Chk=H2O_H2O_1261.chk 

#p CCSD(T)/cc-pVTZ 

H2O_H2O_1261

0 1
O             -0.000000         -0.009833          0.000000
H             -0.799571         -0.580965          0.000000
H              0.799571         -0.580965          0.000000
O             -2.478713         -1.773301          0.000000
H             -3.456436         -1.675507          0.000000
H             -2.254137         -2.729895          0.000000

