%NProcShared=4 
%Mem=4GB  
%Chk=H2O_H2O_1653.chk 

#p CCSD(T)/cc-pVTZ 

H2O_H2O_1653

0 1
O             -0.000000         -0.009833          0.000000
H             -0.799571         -0.580965          0.000000
H              0.799571         -0.580965          0.000000
O             -2.733811         -1.961028          0.000000
H             -3.629441         -2.365198          0.000000
H             -2.061025         -2.677175          0.000000

