%NProcShared=4 
%Mem=4GB  
%Chk=H2O_H2O_3037.chk 

#p CCSD(T)/cc-pVTZ 

H2O_H2O_3037

0 1
O             -0.000000         -0.009833          0.000000
H             -0.799571         -0.580965          0.000000
H              0.799571         -0.580965          0.000000
O             -3.631435         -2.595912          0.000000
H             -4.600668         -2.434381          0.000000
H             -3.469904         -3.565146          0.000000

