%NProcShared=4 
%Mem=4GB  
%Chk=H2O_H2O_437.chk 

#p CCSD(T)/cc-pVTZ 

H2O_H2O_437

0 1
O             -0.000000         -0.009833          0.000000
H             -0.799571         -0.580965          0.000000
H              0.799571         -0.580965          0.000000
O             -1.943629         -1.390316          0.000000
H             -2.912863         -1.228785          0.000000
H             -1.782098         -2.359550          0.000000

