%NProcShared=4 
%Mem=4GB  
%Chk=H2O_H2O_3824.chk 

#p CCSD(T)/cc-pVTZ 

H2O_H2O_3824

0 1
O             -0.000000         -0.009833          0.000000
H             -0.799571         -0.580965          0.000000
H              0.799571         -0.580965          0.000000
O             -4.137411         -2.948319          0.000000
H             -4.708543         -2.148748          0.000000
H             -4.708543         -3.747890          0.000000

