%NProcShared=4 
%Mem=4GB  
%Chk=H2O_H2O_413.chk 

#p CCSD(T)/cc-pVTZ 

H2O_H2O_413

0 1
O             -0.000000         -0.009833          0.000000
H             -0.799571         -0.580965          0.000000
H              0.799571         -0.580965          0.000000
O             -1.927840         -1.378254          0.000000
H             -2.884434         -1.153678          0.000000
H             -1.830046         -2.355978          0.000000

