%NProcShared=4 
%Mem=4GB  
%Chk=H2O_H2O_2235.chk 

#p CCSD(T)/cc-pVTZ 

H2O_H2O_2235

0 1
O             -0.000000         -0.009833          0.000000
H             -0.799571         -0.580965          0.000000
H              0.799571         -0.580965          0.000000
O             -3.111143         -2.225808          0.000000
H             -4.093169         -2.192169          0.000000
H             -2.824483         -3.165665          0.000000

