%NProcShared=4 
%Mem=4GB  
%Chk=H2O_H2O_4420.chk 

#p CCSD(T)/cc-pVTZ 

H2O_H2O_4420

0 1
O             -0.000000         -0.009833          0.000000
H             -0.799571         -0.580965          0.000000
H              0.799571         -0.580965          0.000000
O             -4.526569         -3.229078          0.000000
H             -5.285184         -2.604572          0.000000
H             -4.871296         -4.149225          0.000000

