%NProcShared=4 
%Mem=4GB  
%Chk=H2O_H2O_4821.chk 

#p CCSD(T)/cc-pVTZ 

H2O_H2O_4821

0 1
O             -0.000000         -0.009833          0.000000
H             -0.799571         -0.580965          0.000000
H              0.799571         -0.580965          0.000000
O             -4.786378         -3.413928          0.000000
H             -5.502524         -2.741143          0.000000
H             -5.190547         -4.309558          0.000000

