%NProcShared=4 
%Mem=4GB  
%Chk=H2O_H2O_760.chk 

#p CCSD(T)/cc-pVTZ 

H2O_H2O_760

0 1
O             -0.000000         -0.009833          0.000000
H             -0.799571         -0.580965          0.000000
H              0.799571         -0.580965          0.000000
O             -2.153638         -1.541864          0.000000
H             -3.135664         -1.508225          0.000000
H             -1.866979         -2.481722          0.000000

