%NProcShared=4 
%Mem=4GB  
%Chk=H2O_H2O_278.chk 

#p CCSD(T)/cc-pVTZ 

H2O_H2O_278

0 1
O             -0.000000         -0.009833          0.000000
H             -0.799571         -0.580965          0.000000
H              0.799571         -0.580965          0.000000
O             -1.841221         -1.323454          0.000000
H             -2.736851         -1.727623          0.000000
H             -1.168436         -2.039600          0.000000

