%NProcShared=4 
%Mem=4GB  
%Chk=H2O_H2O_416.chk 

#p CCSD(T)/cc-pVTZ 

H2O_H2O_416

0 1
O             -0.000000         -0.009833          0.000000
H             -0.799571         -0.580965          0.000000
H              0.799571         -0.580965          0.000000
O             -1.928963         -1.376688          0.000000
H             -2.823364         -0.969804          0.000000
H             -2.023792         -2.354703          0.000000

