%NProcShared=4 
%Mem=4GB  
%Chk=H2O_H2O_2639.chk 

#p CCSD(T)/cc-pVTZ 

H2O_H2O_2639

0 1
O             -0.000000         -0.009833          0.000000
H             -0.799571         -0.580965          0.000000
H              0.799571         -0.580965          0.000000
O             -3.372620         -2.409469          0.000000
H             -4.312478         -2.122809          0.000000
H             -3.338982         -3.391494          0.000000

