%NProcShared=4 
%Mem=4GB  
%Chk=H2O_H2O_1255.chk 

#p CCSD(T)/cc-pVTZ 

H2O_H2O_1255

0 1
O             -0.000000         -0.009833          0.000000
H             -0.799571         -0.580965          0.000000
H              0.799571         -0.580965          0.000000
O             -2.475391         -1.775219          0.000000
H             -3.416113         -2.059028          0.000000
H             -1.901837         -2.573055          0.000000

