%NProcShared=4 
%Mem=4GB  
%Chk=H2O_H2O_103.chk 

#p CCSD(T)/cc-pVTZ 

H2O_H2O_103

0 1
O             -0.000000         -0.009833          0.000000
H             -0.799571         -0.580965          0.000000
H              0.799571         -0.580965          0.000000
O             -1.727619         -1.242308          0.000000
H             -2.623249         -1.646477          0.000000
H             -1.054833         -1.958455          0.000000

