%NProcShared=4 
%Mem=4GB  
%Chk=H2O_H2O_2467.chk 

#p CCSD(T)/cc-pVTZ 

H2O_H2O_2467

0 1
O             -0.000000         -0.009833          0.000000
H             -0.799571         -0.580965          0.000000
H              0.799571         -0.580965          0.000000
O             -3.260036         -2.326686          0.000000
H             -4.125910         -1.862177          0.000000
H             -3.418627         -3.296405          0.000000

