%NProcShared=4 
%Mem=4GB  
%Chk=H2O_H2O_4329.chk 

#p CCSD(T)/cc-pVTZ 

H2O_H2O_4329

0 1
O             -0.000000         -0.009833          0.000000
H             -0.799571         -0.580965          0.000000
H              0.799571         -0.580965          0.000000
O             -4.470930         -3.201255          0.000000
H             -5.391076         -3.545981          0.000000
H             -3.846423         -3.959870          0.000000

