%NProcShared=4 
%Mem=4GB  
%Chk=H2O_H2O_900.chk 

#p CCSD(T)/cc-pVTZ 

H2O_H2O_900

0 1
O             -0.000000         -0.009833          0.000000
H             -0.799571         -0.580965          0.000000
H              0.799571         -0.580965          0.000000
O             -2.245025         -1.613450          0.000000
H             -3.044597         -2.184582          0.000000
H             -1.445454         -2.184582          0.000000

