%NProcShared=4 
%Mem=4GB  
%Chk=H2O_H2O_3732.chk 

#p CCSD(T)/cc-pVTZ 

H2O_H2O_3732

0 1
O             -0.000000         -0.009833          0.000000
H             -0.799571         -0.580965          0.000000
H              0.799571         -0.580965          0.000000
O             -4.083240         -2.922361          0.000000
H             -5.052959         -3.080953          0.000000
H             -3.618731         -3.788235          0.000000

