%NProcShared=4 
%Mem=4GB  
%Chk=H2O_H2O_3822.chk 

#p CCSD(T)/cc-pVTZ 

H2O_H2O_3822

0 1
O             -0.000000         -0.009833          0.000000
H             -0.799571         -0.580965          0.000000
H              0.799571         -0.580965          0.000000
O             -4.137327         -2.949603          0.000000
H             -4.807937         -2.231419          0.000000
H             -4.599207         -3.816881          0.000000

