%NProcShared=4 
%Mem=4GB  
%Chk=H2O_H2O_4607.chk 

#p CCSD(T)/cc-pVTZ 

H2O_H2O_4607

0 1
O             -0.000000         -0.009833          0.000000
H             -0.799571         -0.580965          0.000000
H              0.799571         -0.580965          0.000000
O             -4.651252         -3.328091          0.000000
H             -5.620971         -3.486682          0.000000
H             -4.186743         -4.193965          0.000000

