%NProcShared=4 
%Mem=4GB  
%Chk=H2O_H2O_622.chk 

#p CCSD(T)/cc-pVTZ 

H2O_H2O_622

0 1
O             -0.000000         -0.009833          0.000000
H             -0.799571         -0.580965          0.000000
H              0.799571         -0.580965          0.000000
O             -2.060027         -1.465793          0.000000
H             -2.730638         -0.747609          0.000000
H             -2.521908         -2.333071          0.000000

