%NProcShared=4 
%Mem=4GB  
%Chk=H2O_H2O_321.chk 

#p CCSD(T)/cc-pVTZ 

H2O_H2O_321

0 1
O             -0.000000         -0.009833          0.000000
H             -0.799571         -0.580965          0.000000
H              0.799571         -0.580965          0.000000
O             -1.865176         -1.327320          0.000000
H             -2.581322         -0.654535          0.000000
H             -2.269345         -2.222951          0.000000

