%NProcShared=4 
%Mem=4GB  
%Chk=H2O_H2O_3082.chk 

#p CCSD(T)/cc-pVTZ 

H2O_H2O_3082

0 1
O             -0.000000         -0.009833          0.000000
H             -0.799571         -0.580965          0.000000
H              0.799571         -0.580965          0.000000
O             -3.661289         -2.620962          0.000000
H             -4.631008         -2.779554          0.000000
H             -3.196780         -3.486836          0.000000

