%NProcShared=4 
%Mem=4GB  
%Chk=H2O_H2O_2195.chk 

#p CCSD(T)/cc-pVTZ 

H2O_H2O_2195

0 1
O             -0.000000         -0.009833          0.000000
H             -0.799571         -0.580965          0.000000
H              0.799571         -0.580965          0.000000
O             -3.082197         -2.197367          0.000000
H             -3.840813         -1.572860          0.000000
H             -3.426924         -3.117513          0.000000

