%NProcShared=4 
%Mem=4GB  
%Chk=H2O_H2O_220.chk 

#p CCSD(T)/cc-pVTZ 

H2O_H2O_220

0 1
O             -0.000000         -0.009833          0.000000
H             -0.799571         -0.580965          0.000000
H              0.799571         -0.580965          0.000000
O             -1.800114         -1.281578          0.000000
H             -2.558730         -0.657071          0.000000
H             -2.144841         -2.201724          0.000000

