%NProcShared=4 
%Mem=4GB  
%Chk=H2O_H2O_1819.chk 

#p CCSD(T)/cc-pVTZ 

H2O_H2O_1819

0 1
O             -0.000000         -0.009833          0.000000
H             -0.799571         -0.580965          0.000000
H              0.799571         -0.580965          0.000000
O             -2.838577         -2.024099          0.000000
H             -3.636413         -1.450545          0.000000
H             -3.122385         -2.964821          0.000000

