%NProcShared=4 
%Mem=4GB  
%Chk=H2O_H2O_391.chk 

#p CCSD(T)/cc-pVTZ 

H2O_H2O_391

0 1
O             -0.000000         -0.009833          0.000000
H             -0.799571         -0.580965          0.000000
H              0.799571         -0.580965          0.000000
O             -1.912734         -1.365095          0.000000
H             -2.807135         -0.958212          0.000000
H             -2.007563         -2.343111          0.000000

