%NProcShared=4 
%Mem=4GB  
%Chk=H2O_H2O_3063.chk 

#p CCSD(T)/cc-pVTZ 

H2O_H2O_3063

0 1
O             -0.000000         -0.009833          0.000000
H             -0.799571         -0.580965          0.000000
H              0.799571         -0.580965          0.000000
O             -3.648103         -2.607035          0.000000
H             -4.604697         -2.382459          0.000000
H             -3.550309         -3.584758          0.000000

