%NProcShared=4 
%Mem=4GB  
%Chk=H2O_H2O_2884.chk 

#p CCSD(T)/cc-pVTZ 

H2O_H2O_2884

0 1
O             -0.000000         -0.009833          0.000000
H             -0.799571         -0.580965          0.000000
H              0.799571         -0.580965          0.000000
O             -3.532571         -2.527581          0.000000
H             -4.514694         -2.558242          0.000000
H             -3.185056         -3.446678          0.000000

