%NProcShared=4 
%Mem=4GB  
%Chk=H2O_H2O_1257.chk 

#p CCSD(T)/cc-pVTZ 

H2O_H2O_1257

0 1
O             -0.000000         -0.009833          0.000000
H             -0.799571         -0.580965          0.000000
H              0.799571         -0.580965          0.000000
O             -2.476579         -1.774727          0.000000
H             -3.446298         -1.933318          0.000000
H             -2.012070         -2.640601          0.000000

