%NProcShared=4 
%Mem=4GB  
%Chk=H2O_H2O_342.chk 

#p CCSD(T)/cc-pVTZ 

H2O_H2O_342

0 1
O             -0.000000         -0.009833          0.000000
H             -0.799571         -0.580965          0.000000
H              0.799571         -0.580965          0.000000
O             -1.880580         -1.341343          0.000000
H             -2.746454         -0.876835          0.000000
H             -2.039171         -2.311062          0.000000

