%NProcShared=4 
%Mem=4GB  
%Chk=H2O_H2O_2611.chk 

#p CCSD(T)/cc-pVTZ 

H2O_H2O_2611

0 1
O             -0.000000         -0.009833          0.000000
H             -0.799571         -0.580965          0.000000
H              0.799571         -0.580965          0.000000
O             -3.355074         -2.399283          0.000000
H             -4.332797         -2.301489          0.000000
H             -3.130498         -3.355877          0.000000

