%NProcShared=4 
%Mem=4GB  
%Chk=H2O_H2O_2539.chk 

#p CCSD(T)/cc-pVTZ 

H2O_H2O_2539

0 1
O             -0.000000         -0.009833          0.000000
H             -0.799571         -0.580965          0.000000
H              0.799571         -0.580965          0.000000
O             -3.307705         -2.363100          0.000000
H             -4.247563         -2.076440          0.000000
H             -3.274066         -3.345125          0.000000

