%NProcShared=4 
%Mem=4GB  
%Chk=H2O_H2O_3951.chk 

#p CCSD(T)/cc-pVTZ 

H2O_H2O_3951

0 1
O             -0.000000         -0.009833          0.000000
H             -0.799571         -0.580965          0.000000
H              0.799571         -0.580965          0.000000
O             -4.225594         -3.027685          0.000000
H             -5.060807         -3.545299          0.000000
H             -3.465088         -3.649888          0.000000

