%NProcShared=4 
%Mem=4GB  
%Chk=H2O_H2O_871.chk 

#p CCSD(T)/cc-pVTZ 

H2O_H2O_871

0 1
O             -0.000000         -0.009833          0.000000
H             -0.799571         -0.580965          0.000000
H              0.799571         -0.580965          0.000000
O             -2.222212         -1.582350          0.000000
H             -2.938358         -0.909565          0.000000
H             -2.626381         -2.477980          0.000000

