%NProcShared=4 
%Mem=4GB  
%Chk=H2O_H2O_812.chk 

#p CCSD(T)/cc-pVTZ 

H2O_H2O_812

0 1
O             -0.000000         -0.009833          0.000000
H             -0.799571         -0.580965          0.000000
H              0.799571         -0.580965          0.000000
O             -2.187063         -1.564200          0.000000
H             -3.156296         -1.402669          0.000000
H             -2.025532         -2.533434          0.000000

