%NProcShared=4 
%Mem=4GB  
%Chk=H2O_H2O_4557.chk 

#p CCSD(T)/cc-pVTZ 

H2O_H2O_4557

0 1
O             -0.000000         -0.009833          0.000000
H             -0.799571         -0.580965          0.000000
H              0.799571         -0.580965          0.000000
O             -4.618794         -3.304906          0.000000
H             -5.588513         -3.463497          0.000000
H             -4.154285         -4.170780          0.000000

