%NProcShared=4 
%Mem=4GB  
%Chk=H2O_H2O_1592.chk 

#p CCSD(T)/cc-pVTZ 

H2O_H2O_1592

0 1
O             -0.000000         -0.009833          0.000000
H             -0.799571         -0.580965          0.000000
H              0.799571         -0.580965          0.000000
O             -2.692025         -1.920957          0.000000
H             -3.557899         -1.456448          0.000000
H             -2.850616         -2.890676          0.000000

