%NProcShared=4 
%Mem=4GB  
%Chk=H2O_H2O_657.chk 

#p CCSD(T)/cc-pVTZ 

H2O_H2O_657

0 1
O             -0.000000         -0.009833          0.000000
H             -0.799571         -0.580965          0.000000
H              0.799571         -0.580965          0.000000
O             -2.087085         -1.496513          0.000000
H             -3.056804         -1.655104          0.000000
H             -1.622577         -2.362387          0.000000

