%NProcShared=4 
%Mem=4GB  
%Chk=H2O_H2O_3289.chk 

#p CCSD(T)/cc-pVTZ 

H2O_H2O_3289

0 1
O             -0.000000         -0.009833          0.000000
H             -0.799571         -0.580965          0.000000
H              0.799571         -0.580965          0.000000
O             -3.794572         -2.710867          0.000000
H             -4.734430         -2.424208          0.000000
H             -3.760933         -3.692893          0.000000

