%NProcShared=4 
%Mem=4GB  
%Chk=H2O_H2O_898.chk 

#p CCSD(T)/cc-pVTZ 

H2O_H2O_898

0 1
O             -0.000000         -0.009833          0.000000
H             -0.799571         -0.580965          0.000000
H              0.799571         -0.580965          0.000000
O             -2.238609         -1.592667          0.000000
H             -2.860812         -0.832162          0.000000
H             -2.756223         -2.427880          0.000000

