%NProcShared=4 
%Mem=4GB  
%Chk=H2O_H2O_4969.chk 

#p CCSD(T)/cc-pVTZ 

H2O_H2O_4969

0 1
O             -0.000000         -0.009833          0.000000
H             -0.799571         -0.580965          0.000000
H              0.799571         -0.580965          0.000000
O             -4.883418         -3.484724          0.000000
H             -5.681254         -2.911170          0.000000
H             -5.167226         -4.425447          0.000000

