%NProcShared=4 
%Mem=4GB  
%Chk=H2O_H2O_681.chk 

#p CCSD(T)/cc-pVTZ 

H2O_H2O_681

0 1
O             -0.000000         -0.009833          0.000000
H             -0.799571         -0.580965          0.000000
H              0.799571         -0.580965          0.000000
O             -2.102728         -1.508371          0.000000
H             -3.059999         -1.730045          0.000000
H             -1.582583         -2.342010          0.000000

