%NProcShared=4 
%Mem=4GB  
%Chk=H2O_H2O_4549.chk 

#p CCSD(T)/cc-pVTZ 

H2O_H2O_4549

0 1
O             -0.000000         -0.009833          0.000000
H             -0.799571         -0.580965          0.000000
H              0.799571         -0.580965          0.000000
O             -4.608049         -3.284495          0.000000
H             -5.179181         -2.484923          0.000000
H             -5.179181         -4.084066          0.000000

