%NProcShared=4 
%Mem=4GB  
%Chk=H2O_H2O_4654.chk 

#p CCSD(T)/cc-pVTZ 

H2O_H2O_4654

0 1
O             -0.000000         -0.009833          0.000000
H             -0.799571         -0.580965          0.000000
H              0.799571         -0.580965          0.000000
O             -4.681905         -3.351954          0.000000
H             -5.602051         -3.696681          0.000000
H             -4.057398         -4.110570          0.000000

