%NProcShared=4 
%Mem=4GB  
%Chk=H2O_H2O_4332.chk 

#p CCSD(T)/cc-pVTZ 

H2O_H2O_4332

0 1
O             -0.000000         -0.009833          0.000000
H             -0.799571         -0.580965          0.000000
H              0.799571         -0.580965          0.000000
O             -4.472734         -3.200576          0.000000
H             -5.442453         -3.359167          0.000000
H             -4.008225         -4.066450          0.000000

