%NProcShared=4 
%Mem=4GB  
%Chk=H2O_H2O_521.chk 

#p CCSD(T)/cc-pVTZ 

H2O_H2O_521

0 1
O             -0.000000         -0.009833          0.000000
H             -0.799571         -0.580965          0.000000
H              0.799571         -0.580965          0.000000
O             -1.995007         -1.420058          0.000000
H             -2.711154         -0.747273          0.000000
H             -2.399176         -2.315689          0.000000

