%NProcShared=4 
%Mem=4GB  
%Chk=H2O_H2O_2781.chk 

#p CCSD(T)/cc-pVTZ 

H2O_H2O_2781

0 1
O             -0.000000         -0.009833          0.000000
H             -0.799571         -0.580965          0.000000
H              0.799571         -0.580965          0.000000
O             -3.465956         -2.482121          0.000000
H             -4.423226         -2.703795          0.000000
H             -2.945811         -3.315761          0.000000

