%NProcShared=4 
%Mem=4GB  
%Chk=H2O_H2O_577.chk 

#p CCSD(T)/cc-pVTZ 

H2O_H2O_577

0 1
O             -0.000000         -0.009833          0.000000
H             -0.799571         -0.580965          0.000000
H              0.799571         -0.580965          0.000000
O             -2.035333         -1.462666          0.000000
H             -2.902612         -1.924547          0.000000
H             -1.317150         -2.133277          0.000000

