%NProcShared=4 
%Mem=4GB  
%Chk=H2O_H2O_589.chk 

#p CCSD(T)/cc-pVTZ 

H2O_H2O_589

0 1
O             -0.000000         -0.009833          0.000000
H             -0.799571         -0.580965          0.000000
H              0.799571         -0.580965          0.000000
O             -2.041851         -1.458903          0.000000
H             -2.981708         -1.172243          0.000000
H             -2.008212         -2.440929          0.000000

