%NProcShared=4 
%Mem=4GB  
%Chk=H2O_H2O_3699.chk 

#p CCSD(T)/cc-pVTZ 

H2O_H2O_3699

0 1
O             -0.000000         -0.009833          0.000000
H             -0.799571         -0.580965          0.000000
H              0.799571         -0.580965          0.000000
O             -4.056266         -2.890358          0.000000
H             -4.627398         -2.090786          0.000000
H             -4.627398         -3.689929          0.000000

