%NProcShared=4 
%Mem=4GB  
%Chk=H2O_H2O_3675.chk 

#p CCSD(T)/cc-pVTZ 

H2O_H2O_3675

0 1
O             -0.000000         -0.009833          0.000000
H             -0.799571         -0.580965          0.000000
H              0.799571         -0.580965          0.000000
O             -4.046433         -2.900191          0.000000
H             -4.846004         -3.471323          0.000000
H             -3.246862         -3.471323          0.000000

