%NProcShared=4 
%Mem=4GB  
%Chk=H2O_H2O_3719.chk 

#p CCSD(T)/cc-pVTZ 

H2O_H2O_3719

0 1
O             -0.000000         -0.009833          0.000000
H             -0.799571         -0.580965          0.000000
H              0.799571         -0.580965          0.000000
O             -4.071973         -2.905111          0.000000
H             -4.869809         -2.331557          0.000000
H             -4.355782         -3.845833          0.000000

