%NProcShared=4 
%Mem=4GB  
%Chk=H2O_H2O_3968.chk 

#p CCSD(T)/cc-pVTZ 

H2O_H2O_3968

0 1
O             -0.000000         -0.009833          0.000000
H             -0.799571         -0.580965          0.000000
H              0.799571         -0.580965          0.000000
O             -4.234036         -3.021636          0.000000
H             -5.067675         -2.501491          0.000000
H             -4.455710         -3.978906          0.000000

