%NProcShared=4 
%Mem=4GB  
%Chk=H2O_H2O_2110.chk 

#p CCSD(T)/cc-pVTZ 

H2O_H2O_2110

0 1
O             -0.000000         -0.009833          0.000000
H             -0.799571         -0.580965          0.000000
H              0.799571         -0.580965          0.000000
O             -3.029998         -2.167846          0.000000
H             -4.012024         -2.134207          0.000000
H             -2.743339         -3.107704          0.000000

