%NProcShared=4 
%Mem=4GB  
%Chk=H2O_H2O_4673.chk 

#p CCSD(T)/cc-pVTZ 

H2O_H2O_4673

0 1
O             -0.000000         -0.009833          0.000000
H             -0.799571         -0.580965          0.000000
H              0.799571         -0.580965          0.000000
O             -4.689172         -3.343099          0.000000
H             -5.311376         -2.582594          0.000000
H             -5.206787         -4.178312          0.000000

