%NProcShared=4 
%Mem=4GB  
%Chk=H2O_H2O_4080.chk 

#p CCSD(T)/cc-pVTZ 

H2O_H2O_4080

0 1
O             -0.000000         -0.009833          0.000000
H             -0.799571         -0.580965          0.000000
H              0.799571         -0.580965          0.000000
O             -4.309256         -3.085145          0.000000
H             -5.249979         -3.368954          0.000000
H             -3.735702         -3.882981          0.000000

