%NProcShared=4 
%Mem=4GB  
%Chk=H2O_H2O_4699.chk 

#p CCSD(T)/cc-pVTZ 

H2O_H2O_4699

0 1
O             -0.000000         -0.009833          0.000000
H             -0.799571         -0.580965          0.000000
H              0.799571         -0.580965          0.000000
O             -4.705422         -3.354048          0.000000
H             -5.276554         -2.554477          0.000000
H             -5.276554         -4.153620          0.000000

