%NProcShared=4 
%Mem=4GB  
%Chk=H2O_H2O_3813.chk 

#p CCSD(T)/cc-pVTZ 

H2O_H2O_3813

0 1
O             -0.000000         -0.009833          0.000000
H             -0.799571         -0.580965          0.000000
H              0.799571         -0.580965          0.000000
O             -4.134971         -2.954803          0.000000
H             -5.091564         -2.730226          0.000000
H             -4.037176         -3.932526          0.000000

