%NProcShared=4 
%Mem=4GB  
%Chk=H2O_H2O_4051.chk 

#p CCSD(T)/cc-pVTZ 

H2O_H2O_4051

0 1
O             -0.000000         -0.009833          0.000000
H             -0.799571         -0.580965          0.000000
H              0.799571         -0.580965          0.000000
O             -4.290510         -3.074054          0.000000
H             -5.125723         -3.591668          0.000000
H             -3.530004         -3.696257          0.000000

