%NProcShared=4 
%Mem=4GB  
%Chk=H2O_H2O_4124.chk 

#p CCSD(T)/cc-pVTZ 

H2O_H2O_4124

0 1
O             -0.000000         -0.009833          0.000000
H             -0.799571         -0.580965          0.000000
H              0.799571         -0.580965          0.000000
O             -4.332157         -3.087426          0.000000
H             -4.903289         -2.287855          0.000000
H             -4.903289         -3.886998          0.000000

