%NProcShared=4 
%Mem=4GB  
%Chk=H2O_H2O_1422.chk 

#p CCSD(T)/cc-pVTZ 

H2O_H2O_1422

0 1
O             -0.000000         -0.009833          0.000000
H             -0.799571         -0.580965          0.000000
H              0.799571         -0.580965          0.000000
O             -2.579352         -1.836745          0.000000
H             -3.249963         -1.118562          0.000000
H             -3.041233         -2.704024          0.000000

