%NProcShared=4 
%Mem=4GB  
%Chk=H2O_H2O_4875.chk 

#p CCSD(T)/cc-pVTZ 

H2O_H2O_4875

0 1
O             -0.000000         -0.009833          0.000000
H             -0.799571         -0.580965          0.000000
H              0.799571         -0.580965          0.000000
O             -4.825420         -3.456620          0.000000
H             -5.624992         -4.027752          0.000000
H             -4.025849         -4.027752          0.000000

