%NProcShared=4 
%Mem=4GB  
%Chk=H2O_H2O_4939.chk 

#p CCSD(T)/cc-pVTZ 

H2O_H2O_4939

0 1
O             -0.000000         -0.009833          0.000000
H             -0.799571         -0.580965          0.000000
H              0.799571         -0.580965          0.000000
O             -4.865679         -3.475957          0.000000
H             -5.805537         -3.189298          0.000000
H             -4.832040         -4.457983          0.000000

