%NProcShared=4 
%Mem=4GB  
%Chk=H2O_H2O_3397.chk 

#p CCSD(T)/cc-pVTZ 

H2O_H2O_3397

0 1
O             -0.000000         -0.009833          0.000000
H             -0.799571         -0.580965          0.000000
H              0.799571         -0.580965          0.000000
O             -3.861435         -2.752534          0.000000
H             -4.532046         -2.034351          0.000000
H             -4.323316         -3.619813          0.000000

