%NProcShared=4 
%Mem=4GB  
%Chk=H2O_H2O_4060.chk 

#p CCSD(T)/cc-pVTZ 

H2O_H2O_4060

0 1
O             -0.000000         -0.009833          0.000000
H             -0.799571         -0.580965          0.000000
H              0.799571         -0.580965          0.000000
O             -4.295853         -3.072043          0.000000
H             -5.277879         -3.038404          0.000000
H             -4.009193         -4.011900          0.000000

