%NProcShared=4 
%Mem=4GB  
%Chk=H2O_H2O_3518.chk 

#p CCSD(T)/cc-pVTZ 

H2O_H2O_3518

0 1
O             -0.000000         -0.009833          0.000000
H             -0.799571         -0.580965          0.000000
H              0.799571         -0.580965          0.000000
O             -3.941915         -2.812975          0.000000
H             -4.775555         -2.292830          0.000000
H             -4.163590         -3.770245          0.000000

