%NProcShared=4 
%Mem=4GB  
%Chk=H2O_H2O_1073.chk 

#p CCSD(T)/cc-pVTZ 

H2O_H2O_1073

0 1
O             -0.000000         -0.009833          0.000000
H             -0.799571         -0.580965          0.000000
H              0.799571         -0.580965          0.000000
O             -2.352211         -1.673813          0.000000
H             -2.974414         -0.913307          0.000000
H             -2.869825         -2.509026          0.000000

