%NProcShared=4 
%Mem=4GB  
%Chk=H2O_H2O_1492.chk 

#p CCSD(T)/cc-pVTZ 

H2O_H2O_1492

0 1
O             -0.000000         -0.009833          0.000000
H             -0.799571         -0.580965          0.000000
H              0.799571         -0.580965          0.000000
O             -2.627109         -1.874587          0.000000
H             -3.492983         -1.410079          0.000000
H             -2.785700         -2.844306          0.000000

