%NProcShared=4 
%Mem=4GB  
%Chk=H2O_H2O_3270.chk 

#p CCSD(T)/cc-pVTZ 

H2O_H2O_3270

0 1
O             -0.000000         -0.009833          0.000000
H             -0.799571         -0.580965          0.000000
H              0.799571         -0.580965          0.000000
O             -3.780040         -2.695834          0.000000
H             -4.538655         -2.071327          0.000000
H             -4.124767         -3.615981          0.000000

