%NProcShared=4 
%Mem=4GB  
%Chk=H2O_H2O_1700.chk 

#p CCSD(T)/cc-pVTZ 

H2O_H2O_1700

0 1
O             -0.000000         -0.009833          0.000000
H             -0.799571         -0.580965          0.000000
H              0.799571         -0.580965          0.000000
O             -2.764350         -1.984402          0.000000
H             -3.563921         -2.555534          0.000000
H             -1.964779         -2.555534          0.000000

