%NProcShared=4 
%Mem=4GB  
%Chk=H2O_H2O_966.chk 

#p CCSD(T)/cc-pVTZ 

H2O_H2O_966

0 1
O             -0.000000         -0.009833          0.000000
H             -0.799571         -0.580965          0.000000
H              0.799571         -0.580965          0.000000
O             -2.285999         -1.631717          0.000000
H             -3.180399         -1.224834          0.000000
H             -2.380828         -2.609733          0.000000

