%NProcShared=4 
%Mem=4GB  
%Chk=H2O_H2O_993.chk 

#p CCSD(T)/cc-pVTZ 

H2O_H2O_993

0 1
O             -0.000000         -0.009833          0.000000
H             -0.799571         -0.580965          0.000000
H              0.799571         -0.580965          0.000000
O             -2.302797         -1.642156          0.000000
H             -3.136436         -1.122011          0.000000
H             -2.524471         -2.599427          0.000000

