%NProcShared=4 
%Mem=4GB  
%Chk=H2O_H2O_4991.chk 

#p CCSD(T)/cc-pVTZ 

H2O_H2O_4991

0 1
O             -0.000000         -0.009833          0.000000
H             -0.799571         -0.580965          0.000000
H              0.799571         -0.580965          0.000000
O             -4.898851         -3.498072          0.000000
H             -5.793252         -3.091189          0.000000
H             -4.993681         -4.476087          0.000000

