%NProcShared=4 
%Mem=4GB  
%Chk=H2O_H2O_644.chk 

#p CCSD(T)/cc-pVTZ 

H2O_H2O_644

0 1
O             -0.000000         -0.009833          0.000000
H             -0.799571         -0.580965          0.000000
H              0.799571         -0.580965          0.000000
O             -2.075819         -1.479262          0.000000
H             -2.873655         -0.905708          0.000000
H             -2.359627         -2.419985          0.000000

