%NProcShared=4 
%Mem=4GB  
%Chk=H2O_H2O_4467.chk 

#p CCSD(T)/cc-pVTZ 

H2O_H2O_4467

0 1
O             -0.000000         -0.009833          0.000000
H             -0.799571         -0.580965          0.000000
H              0.799571         -0.580965          0.000000
O             -4.558348         -3.254067          0.000000
H             -5.424222         -2.789559          0.000000
H             -4.716939         -4.223786          0.000000

