%NProcShared=4 
%Mem=4GB  
%Chk=H2O_H2O_1312.chk 

#p CCSD(T)/cc-pVTZ 

H2O_H2O_1312

0 1
O             -0.000000         -0.009833          0.000000
H             -0.799571         -0.580965          0.000000
H              0.799571         -0.580965          0.000000
O             -2.511641         -1.796046          0.000000
H             -3.480874         -1.634515          0.000000
H             -2.350110         -2.765279          0.000000

