%NProcShared=4 
%Mem=4GB  
%Chk=H2O_H2O_2098.chk 

#p CCSD(T)/cc-pVTZ 

H2O_H2O_2098

0 1
O             -0.000000         -0.009833          0.000000
H             -0.799571         -0.580965          0.000000
H              0.799571         -0.580965          0.000000
O             -3.017596         -2.149096          0.000000
H             -3.639799         -1.388590          0.000000
H             -3.535210         -2.984309          0.000000

