%NProcShared=4 
%Mem=4GB  
%Chk=H2O_H2O_975.chk 

#p CCSD(T)/cc-pVTZ 

H2O_H2O_975

0 1
O             -0.000000         -0.009833          0.000000
H             -0.799571         -0.580965          0.000000
H              0.799571         -0.580965          0.000000
O             -2.293712         -1.648226          0.000000
H             -3.093283         -2.219358          0.000000
H             -1.494141         -2.219358          0.000000

