%NProcShared=4 
%Mem=4GB  
%Chk=H2O_H2O_2887.chk 

#p CCSD(T)/cc-pVTZ 

H2O_H2O_2887

0 1
O             -0.000000         -0.009833          0.000000
H             -0.799571         -0.580965          0.000000
H              0.799571         -0.580965          0.000000
O             -3.534061         -2.526358          0.000000
H             -4.503295         -2.364827          0.000000
H             -3.372530         -3.495592          0.000000

