%NProcShared=4 
%Mem=4GB  
%Chk=H2O_H2O_1962.chk 

#p CCSD(T)/cc-pVTZ 

H2O_H2O_1962

0 1
O             -0.000000         -0.009833          0.000000
H             -0.799571         -0.580965          0.000000
H              0.799571         -0.580965          0.000000
O             -2.933592         -2.097445          0.000000
H             -3.902826         -1.935913          0.000000
H             -2.772061         -3.066678          0.000000

