%NProcShared=4 
%Mem=4GB  
%Chk=H2O_H2O_2671.chk 

#p CCSD(T)/cc-pVTZ 

H2O_H2O_2671

0 1
O             -0.000000         -0.009833          0.000000
H             -0.799571         -0.580965          0.000000
H              0.799571         -0.580965          0.000000
O             -3.390692         -2.416993          0.000000
H             -4.106839         -1.744208          0.000000
H             -3.794862         -3.312623          0.000000

