%NProcShared=4 
%Mem=4GB  
%Chk=H2O_H2O_301.chk 

#p CCSD(T)/cc-pVTZ 

H2O_H2O_301

0 1
O             -0.000000         -0.009833          0.000000
H             -0.799571         -0.580965          0.000000
H              0.799571         -0.580965          0.000000
O             -1.856175         -1.335214          0.000000
H             -2.691388         -1.852829          0.000000
H             -1.095669         -1.957418          0.000000

