%NProcShared=4 
%Mem=4GB  
%Chk=H2O_H2O_608.chk 

#p CCSD(T)/cc-pVTZ 

H2O_H2O_608

0 1
O             -0.000000         -0.009833          0.000000
H             -0.799571         -0.580965          0.000000
H              0.799571         -0.580965          0.000000
O             -2.055195         -1.473025          0.000000
H             -3.033210         -1.567854          0.000000
H             -1.648312         -2.367426          0.000000

