%NProcShared=4 
%Mem=4GB  
%Chk=H2O_H2O_468.chk 

#p CCSD(T)/cc-pVTZ 

H2O_H2O_468

0 1
O             -0.000000         -0.009833          0.000000
H             -0.799571         -0.580965          0.000000
H              0.799571         -0.580965          0.000000
O             -1.961990         -1.398719          0.000000
H             -2.795630         -0.878574          0.000000
H             -2.183664         -2.355989          0.000000

