%NProcShared=4 
%Mem=4GB  
%Chk=H2O_H2O_244.chk 

#p CCSD(T)/cc-pVTZ 

H2O_H2O_244

0 1
O             -0.000000         -0.009833          0.000000
H             -0.799571         -0.580965          0.000000
H              0.799571         -0.580965          0.000000
O             -1.816156         -1.293786          0.000000
H             -2.613992         -0.720232          0.000000
H             -2.099965         -2.234509          0.000000

