%NProcShared=4 
%Mem=4GB  
%Chk=H2O_H2O_2569.chk 

#p CCSD(T)/cc-pVTZ 

H2O_H2O_2569

0 1
O             -0.000000         -0.009833          0.000000
H             -0.799571         -0.580965          0.000000
H              0.799571         -0.580965          0.000000
O             -3.325444         -2.371867          0.000000
H             -4.123280         -1.798313          0.000000
H             -3.609252         -3.312589          0.000000

