%NProcShared=4 
%Mem=4GB  
%Chk=H2O_H2O_1971.chk 

#p CCSD(T)/cc-pVTZ 

H2O_H2O_1971

0 1
O             -0.000000         -0.009833          0.000000
H             -0.799571         -0.580965          0.000000
H              0.799571         -0.580965          0.000000
O             -2.936283         -2.092410          0.000000
H             -3.652430         -1.419624          0.000000
H             -3.340452         -2.988040          0.000000

