%NProcShared=4 
%Mem=4GB  
%Chk=H2O_H2O_816.chk 

#p CCSD(T)/cc-pVTZ 

H2O_H2O_816

0 1
O             -0.000000         -0.009833          0.000000
H             -0.799571         -0.580965          0.000000
H              0.799571         -0.580965          0.000000
O             -2.188625         -1.562164          0.000000
H             -3.083026         -1.155281          0.000000
H             -2.283455         -2.540179          0.000000

