%NProcShared=4 
%Mem=4GB  
%Chk=H2O_H2O_1943.chk 

#p CCSD(T)/cc-pVTZ 

H2O_H2O_1943

0 1
O             -0.000000         -0.009833          0.000000
H             -0.799571         -0.580965          0.000000
H              0.799571         -0.580965          0.000000
O             -2.919495         -2.082662          0.000000
H             -3.753135         -1.562517          0.000000
H             -3.141169         -3.039933          0.000000

