%NProcShared=4 
%Mem=4GB  
%Chk=H2O_H2O_2289.chk 

#p CCSD(T)/cc-pVTZ 

H2O_H2O_2289

0 1
O             -0.000000         -0.009833          0.000000
H             -0.799571         -0.580965          0.000000
H              0.799571         -0.580965          0.000000
O             -3.145416         -2.247177          0.000000
H             -4.085274         -1.960518          0.000000
H             -3.111777         -3.229203          0.000000

