%NProcShared=4 
%Mem=4GB  
%Chk=H2O_H2O_2159.chk 

#p CCSD(T)/cc-pVTZ 

H2O_H2O_2159

0 1
O             -0.000000         -0.009833          0.000000
H             -0.799571         -0.580965          0.000000
H              0.799571         -0.580965          0.000000
O             -3.061933         -2.191406          0.000000
H             -4.044057         -2.222066          0.000000
H             -2.714418         -3.110503          0.000000

