%NProcShared=4 
%Mem=4GB  
%Chk=H2O_H2O_296.chk 

#p CCSD(T)/cc-pVTZ 

H2O_H2O_296

0 1
O             -0.000000         -0.009833          0.000000
H             -0.799571         -0.580965          0.000000
H              0.799571         -0.580965          0.000000
O             -1.848947         -1.315728          0.000000
H             -2.565094         -0.642943          0.000000
H             -2.253116         -2.211358          0.000000

