%NProcShared=4 
%Mem=4GB  
%Chk=H2O_H2O_3530.chk 

#p CCSD(T)/cc-pVTZ 

H2O_H2O_3530

0 1
O             -0.000000         -0.009833          0.000000
H             -0.799571         -0.580965          0.000000
H              0.799571         -0.580965          0.000000
O             -3.952220         -2.830115          0.000000
H             -4.892943         -3.113924          0.000000
H             -3.378667         -3.627951          0.000000

