%NProcShared=4 
%Mem=4GB  
%Chk=H2O_H2O_2769.chk 

#p CCSD(T)/cc-pVTZ 

H2O_H2O_2769

0 1
O             -0.000000         -0.009833          0.000000
H             -0.799571         -0.580965          0.000000
H              0.799571         -0.580965          0.000000
O             -3.455275         -2.464605          0.000000
H             -4.253111         -1.891051          0.000000
H             -3.739083         -3.405327          0.000000

