%NProcShared=4 
%Mem=4GB  
%Chk=H2O_H2O_1419.chk 

#p CCSD(T)/cc-pVTZ 

H2O_H2O_1419

0 1
O             -0.000000         -0.009833          0.000000
H             -0.799571         -0.580965          0.000000
H              0.799571         -0.580965          0.000000
O             -2.578915         -1.838622          0.000000
H             -3.376750         -1.265069          0.000000
H             -2.862723         -2.779345          0.000000

