%NProcShared=4 
%Mem=4GB  
%Chk=H2O_H2O_1456.chk 

#p CCSD(T)/cc-pVTZ 

H2O_H2O_1456

0 1
O             -0.000000         -0.009833          0.000000
H             -0.799571         -0.580965          0.000000
H              0.799571         -0.580965          0.000000
O             -2.605824         -1.867731          0.000000
H             -3.563095         -2.089405          0.000000
H             -2.085679         -2.701371          0.000000

