%NProcShared=4 
%Mem=4GB  
%Chk=H2O_H2O_965.chk 

#p CCSD(T)/cc-pVTZ 

H2O_H2O_965

0 1
O             -0.000000         -0.009833          0.000000
H             -0.799571         -0.580965          0.000000
H              0.799571         -0.580965          0.000000
O             -2.285659         -1.632264          0.000000
H             -3.204756         -1.284748          0.000000
H             -2.316320         -2.614387          0.000000

