%NProcShared=4 
%Mem=4GB  
%Chk=H2O_H2O_147.chk 

#p CCSD(T)/cc-pVTZ 

H2O_H2O_147

0 1
O             -0.000000         -0.009833          0.000000
H             -0.799571         -0.580965          0.000000
H              0.799571         -0.580965          0.000000
O             -1.751678         -1.245540          0.000000
H             -2.422289         -0.527356          0.000000
H             -2.213559         -2.112818          0.000000

