%NProcShared=4 
%Mem=4GB  
%Chk=H2O_H2O_963.chk 

#p CCSD(T)/cc-pVTZ 

H2O_H2O_963

0 1
O             -0.000000         -0.009833          0.000000
H             -0.799571         -0.580965          0.000000
H              0.799571         -0.580965          0.000000
O             -2.284876         -1.633284          0.000000
H             -3.241470         -1.408708          0.000000
H             -2.187082         -2.611007          0.000000

