%NProcShared=4 
%Mem=4GB  
%Chk=H2O_H2O_2079.chk 

#p CCSD(T)/cc-pVTZ 

H2O_H2O_2079

0 1
O             -0.000000         -0.009833          0.000000
H             -0.799571         -0.580965          0.000000
H              0.799571         -0.580965          0.000000
O             -3.010328         -2.157951          0.000000
H             -3.930475         -2.502678          0.000000
H             -2.385822         -2.916566          0.000000

