%NProcShared=4 
%Mem=4GB  
%Chk=H2O_H2O_3741.chk 

#p CCSD(T)/cc-pVTZ 

H2O_H2O_3741

0 1
O             -0.000000         -0.009833          0.000000
H             -0.799571         -0.580965          0.000000
H              0.799571         -0.580965          0.000000
O             -4.087406         -2.918459          0.000000
H             -4.981807         -2.511576          0.000000
H             -4.182236         -3.896474          0.000000

