%NProcShared=4 
%Mem=4GB  
%Chk=H2O_H2O_625.chk 

#p CCSD(T)/cc-pVTZ 

H2O_H2O_625

0 1
O             -0.000000         -0.009833          0.000000
H             -0.799571         -0.580965          0.000000
H              0.799571         -0.580965          0.000000
O             -2.066507         -1.485935          0.000000
H             -2.866079         -2.057067          0.000000
H             -1.266936         -2.057067          0.000000

