%NProcShared=4 
%Mem=4GB  
%Chk=H2O_H2O_1198.chk 

#p CCSD(T)/cc-pVTZ 

H2O_H2O_1198

0 1
O             -0.000000         -0.009833          0.000000
H             -0.799571         -0.580965          0.000000
H              0.799571         -0.580965          0.000000
O             -2.433355         -1.731774          0.000000
H             -3.055559         -0.971269          0.000000
H             -2.950970         -2.566988          0.000000

