%NProcShared=4 
%Mem=4GB  
%Chk=H2O_H2O_2155.chk 

#p CCSD(T)/cc-pVTZ 

H2O_H2O_2155

0 1
O             -0.000000         -0.009833          0.000000
H             -0.799571         -0.580965          0.000000
H              0.799571         -0.580965          0.000000
O             -3.059631         -2.192541          0.000000
H             -4.000354         -2.476349          0.000000
H             -2.486077         -2.990377          0.000000

