%NProcShared=4 
%Mem=4GB  
%Chk=H2O_H2O_2076.chk 

#p CCSD(T)/cc-pVTZ 

H2O_H2O_2076

0 1
O             -0.000000         -0.009833          0.000000
H             -0.799571         -0.580965          0.000000
H              0.799571         -0.580965          0.000000
O             -3.008427         -2.158265          0.000000
H             -3.843640         -2.675880          0.000000
H             -2.247921         -2.780469          0.000000

