%NProcShared=4 
%Mem=4GB  
%Chk=H2O_H2O_4577.chk 

#p CCSD(T)/cc-pVTZ 

H2O_H2O_4577

0 1
O             -0.000000         -0.009833          0.000000
H             -0.799571         -0.580965          0.000000
H              0.799571         -0.580965          0.000000
O             -4.631957         -3.317428          0.000000
H             -5.499236         -3.779309          0.000000
H             -3.913774         -3.988039          0.000000

