%NProcShared=4 
%Mem=4GB  
%Chk=H2O_H2O_347.chk 

#p CCSD(T)/cc-pVTZ 

H2O_H2O_347

0 1
O             -0.000000         -0.009833          0.000000
H             -0.799571         -0.580965          0.000000
H              0.799571         -0.580965          0.000000
O             -1.881510         -1.338278          0.000000
H             -2.552121         -0.620094          0.000000
H             -2.343390         -2.205556          0.000000

