%NProcShared=4 
%Mem=4GB  
%Chk=H2O_H2O_4922.chk 

#p CCSD(T)/cc-pVTZ 

H2O_H2O_4922

0 1
O             -0.000000         -0.009833          0.000000
H             -0.799571         -0.580965          0.000000
H              0.799571         -0.580965          0.000000
O             -4.851398         -3.459662          0.000000
H             -5.522009         -2.741479          0.000000
H             -5.313279         -4.326941          0.000000

