%NProcShared=4 
%Mem=4GB  
%Chk=H2O_H2O_25.chk 

#p CCSD(T)/cc-pVTZ 

H2O_H2O_25

0 1
O             -0.000000         -0.009833          0.000000
H             -0.799571         -0.580965          0.000000
H              0.799571         -0.580965          0.000000
O             -1.677014         -1.207720          0.000000
H             -2.476585         -1.778852          0.000000
H             -0.877442         -1.778852          0.000000

