%NProcShared=4 
%Mem=4GB  
%Chk=H2O_H2O_338.chk 

#p CCSD(T)/cc-pVTZ 

H2O_H2O_338

0 1
O             -0.000000         -0.009833          0.000000
H             -0.799571         -0.580965          0.000000
H              0.799571         -0.580965          0.000000
O             -1.879154         -1.343478          0.000000
H             -2.835747         -1.118902          0.000000
H             -1.781359         -2.321201          0.000000

