%NProcShared=4 
%Mem=4GB  
%Chk=H2O_H2O_3301.chk 

#p CCSD(T)/cc-pVTZ 

H2O_H2O_3301

0 1
O             -0.000000         -0.009833          0.000000
H             -0.799571         -0.580965          0.000000
H              0.799571         -0.580965          0.000000
O             -3.803643         -2.726286          0.000000
H             -4.638856         -3.243901          0.000000
H             -3.043137         -3.348489          0.000000

