%NProcShared=4 
%Mem=4GB  
%Chk=H2O_H2O_4134.chk 

#p CCSD(T)/cc-pVTZ 

H2O_H2O_4134

0 1
O             -0.000000         -0.009833          0.000000
H             -0.799571         -0.580965          0.000000
H              0.799571         -0.580965          0.000000
O             -4.344016         -3.107194          0.000000
H             -5.326139         -3.137855          0.000000
H             -3.996501         -4.026291          0.000000

