%NProcShared=4 
%Mem=4GB  
%Chk=H2O_H2O_2501.chk 

#p CCSD(T)/cc-pVTZ 

H2O_H2O_2501

0 1
O             -0.000000         -0.009833          0.000000
H             -0.799571         -0.580965          0.000000
H              0.799571         -0.580965          0.000000
O             -3.284318         -2.355334          0.000000
H             -4.119531         -2.872948          0.000000
H             -2.523812         -2.977537          0.000000

