%NProcShared=4 
%Mem=4GB  
%Chk=H2O_H2O_257.chk 

#p CCSD(T)/cc-pVTZ 

H2O_H2O_257

0 1
O             -0.000000         -0.009833          0.000000
H             -0.799571         -0.580965          0.000000
H              0.799571         -0.580965          0.000000
O             -1.827423         -1.311037          0.000000
H             -2.797142         -1.469628          0.000000
H             -1.362914         -2.176911          0.000000

