%NProcShared=4 
%Mem=4GB  
%Chk=H2O_H2O_2848.chk 

#p CCSD(T)/cc-pVTZ 

H2O_H2O_2848

0 1
O             -0.000000         -0.009833          0.000000
H             -0.799571         -0.580965          0.000000
H              0.799571         -0.580965          0.000000
O             -3.504463         -2.496864          0.000000
H             -4.126666         -1.736358          0.000000
H             -4.022077         -3.332077          0.000000

