%NProcShared=4 
%Mem=4GB  
%Chk=H2O_H2O_2044.chk 

#p CCSD(T)/cc-pVTZ 

H2O_H2O_2044

0 1
O             -0.000000         -0.009833          0.000000
H             -0.799571         -0.580965          0.000000
H              0.799571         -0.580965          0.000000
O             -2.984637         -2.128429          0.000000
H             -3.782473         -1.554875          0.000000
H             -3.268445         -3.069152          0.000000

