%NProcShared=4 
%Mem=4GB  
%Chk=H2O_H2O_75.chk 

#p CCSD(T)/cc-pVTZ 

H2O_H2O_75

0 1
O             -0.000000         -0.009833          0.000000
H             -0.799571         -0.580965          0.000000
H              0.799571         -0.580965          0.000000
O             -1.709472         -1.230905          0.000000
H             -2.509043         -1.802037          0.000000
H             -0.909900         -1.802037          0.000000

