%NProcShared=4 
%Mem=4GB  
%Chk=H2O_H2O_815.chk 

#p CCSD(T)/cc-pVTZ 

H2O_H2O_815

0 1
O             -0.000000         -0.009833          0.000000
H             -0.799571         -0.580965          0.000000
H              0.799571         -0.580965          0.000000
O             -2.188286         -1.562710          0.000000
H             -3.107383         -1.215195          0.000000
H             -2.218946         -2.544834          0.000000

