%NProcShared=4 
%Mem=4GB  
%Chk=H2O_H2O_4817.chk 

#p CCSD(T)/cc-pVTZ 

H2O_H2O_4817

0 1
O             -0.000000         -0.009833          0.000000
H             -0.799571         -0.580965          0.000000
H              0.799571         -0.580965          0.000000
O             -4.785553         -3.416359          0.000000
H             -5.651427         -2.951850          0.000000
H             -4.944144         -4.386078          0.000000

