%NProcShared=4 
%Mem=4GB  
%Chk=H2O_H2O_2761.chk 

#p CCSD(T)/cc-pVTZ 

H2O_H2O_2761

0 1
O             -0.000000         -0.009833          0.000000
H             -0.799571         -0.580965          0.000000
H              0.799571         -0.580965          0.000000
O             -3.452447         -2.468837          0.000000
H             -4.430170         -2.371043          0.000000
H             -3.227871         -3.425431          0.000000

