%NProcShared=4 
%Mem=4GB  
%Chk=H2O_H2O_4685.chk 

#p CCSD(T)/cc-pVTZ 

H2O_H2O_4685

0 1
O             -0.000000         -0.009833          0.000000
H             -0.799571         -0.580965          0.000000
H              0.799571         -0.580965          0.000000
O             -4.701575         -3.361849          0.000000
H             -5.683601         -3.328211          0.000000
H             -4.414915         -4.301707          0.000000

