%NProcShared=4 
%Mem=4GB  
%Chk=H2O_H2O_3142.chk 

#p CCSD(T)/cc-pVTZ 

H2O_H2O_3142

0 1
O             -0.000000         -0.009833          0.000000
H             -0.799571         -0.580965          0.000000
H              0.799571         -0.580965          0.000000
O             -3.698216         -2.639677          0.000000
H             -4.564091         -2.175169          0.000000
H             -3.856808         -3.609396          0.000000

