%NProcShared=4 
%Mem=4GB  
%Chk=H2O_H2O_632.chk 

#p CCSD(T)/cc-pVTZ 

H2O_H2O_632

0 1
O             -0.000000         -0.009833          0.000000
H             -0.799571         -0.580965          0.000000
H              0.799571         -0.580965          0.000000
O             -2.070856         -1.484921          0.000000
H             -3.040575         -1.643512          0.000000
H             -1.606348         -2.350795          0.000000

