%NProcShared=4 
%Mem=4GB  
%Chk=H2O_H2O_1129.chk 

#p CCSD(T)/cc-pVTZ 

H2O_H2O_1129

0 1
O             -0.000000         -0.009833          0.000000
H             -0.799571         -0.580965          0.000000
H              0.799571         -0.580965          0.000000
O             -2.393630         -1.717445          0.000000
H             -3.313777         -2.062172          0.000000
H             -1.769124         -2.476060          0.000000

