%NProcShared=4 
%Mem=4GB  
%Chk=H2O_H2O_4355.chk 

#p CCSD(T)/cc-pVTZ 

H2O_H2O_4355

0 1
O             -0.000000         -0.009833          0.000000
H             -0.799571         -0.580965          0.000000
H              0.799571         -0.580965          0.000000
O             -4.487774         -3.212660          0.000000
H             -5.428496         -3.496468          0.000000
H             -3.914220         -4.010496          0.000000

