%NProcShared=4 
%Mem=4GB  
%Chk=H2O_H2O_778.chk 

#p CCSD(T)/cc-pVTZ 

H2O_H2O_778

0 1
O             -0.000000         -0.009833          0.000000
H             -0.799571         -0.580965          0.000000
H              0.799571         -0.580965          0.000000
O             -2.165799         -1.555299          0.000000
H             -3.061429         -1.959468          0.000000
H             -1.493014         -2.271446          0.000000

