%NProcShared=4 
%Mem=4GB  
%Chk=H2O_H2O_1729.chk 

#p CCSD(T)/cc-pVTZ 

H2O_H2O_1729

0 1
O             -0.000000         -0.009833          0.000000
H             -0.799571         -0.580965          0.000000
H              0.799571         -0.580965          0.000000
O             -2.783124         -1.995659          0.000000
H             -3.703271         -2.340386          0.000000
H             -2.158617         -2.754275          0.000000

