%NProcShared=4 
%Mem=4GB  
%Chk=H2O_H2O_2647.chk 

#p CCSD(T)/cc-pVTZ 

H2O_H2O_2647

0 1
O             -0.000000         -0.009833          0.000000
H             -0.799571         -0.580965          0.000000
H              0.799571         -0.580965          0.000000
O             -3.374568         -2.404766          0.000000
H             -4.045179         -1.686583          0.000000
H             -3.836449         -3.272045          0.000000

