%NProcShared=4 
%Mem=4GB  
%Chk=H2O_H2O_1163.chk 

#p CCSD(T)/cc-pVTZ 

H2O_H2O_1163

0 1
O             -0.000000         -0.009833          0.000000
H             -0.799571         -0.580965          0.000000
H              0.799571         -0.580965          0.000000
O             -2.414707         -1.726022          0.000000
H             -3.371301         -1.501446          0.000000
H             -2.316913         -2.703746          0.000000

