%NProcShared=4 
%Mem=4GB  
%Chk=H2O_H2O_3081.chk 

#p CCSD(T)/cc-pVTZ 

H2O_H2O_3081

0 1
O             -0.000000         -0.009833          0.000000
H             -0.799571         -0.580965          0.000000
H              0.799571         -0.580965          0.000000
O             -3.660702         -2.621228          0.000000
H             -4.617973         -2.842902          0.000000
H             -3.140558         -3.454868          0.000000

