%NProcShared=4 
%Mem=4GB  
%Chk=H2O_H2O_3245.chk 

#p CCSD(T)/cc-pVTZ 

H2O_H2O_3245

0 1
O             -0.000000         -0.009833          0.000000
H             -0.799571         -0.580965          0.000000
H              0.799571         -0.580965          0.000000
O             -3.763811         -2.684242          0.000000
H             -4.522426         -2.059735          0.000000
H             -4.108538         -3.604388          0.000000

