%NProcShared=4 
%Mem=4GB  
%Chk=H2O_H2O_2057.chk 

#p CCSD(T)/cc-pVTZ 

H2O_H2O_2057

0 1
O             -0.000000         -0.009833          0.000000
H             -0.799571         -0.580965          0.000000
H              0.799571         -0.580965          0.000000
O             -2.995904         -2.145680          0.000000
H             -3.965623         -2.304271          0.000000
H             -2.531395         -3.011554          0.000000

