%NProcShared=4 
%Mem=4GB  
%Chk=H2O_H2O_1550.chk 

#p CCSD(T)/cc-pVTZ 

H2O_H2O_1550

0 1
O             -0.000000         -0.009833          0.000000
H             -0.799571         -0.580965          0.000000
H              0.799571         -0.580965          0.000000
O             -2.666977         -1.914848          0.000000
H             -3.466548         -2.485980          0.000000
H             -1.867405         -2.485980          0.000000

