%NProcShared=4 
%Mem=4GB  
%Chk=H2O_H2O_3685.chk 

#p CCSD(T)/cc-pVTZ 

H2O_H2O_3685

0 1
O             -0.000000         -0.009833          0.000000
H             -0.799571         -0.580965          0.000000
H              0.799571         -0.580965          0.000000
O             -4.052419         -2.898159          0.000000
H             -5.034445         -2.864520          0.000000
H             -3.765760         -3.838017          0.000000

