%NProcShared=4 
%Mem=4GB  
%Chk=H2O_H2O_140.chk 

#p CCSD(T)/cc-pVTZ 

H2O_H2O_140

0 1
O             -0.000000         -0.009833          0.000000
H             -0.799571         -0.580965          0.000000
H              0.799571         -0.580965          0.000000
O             -1.750105         -1.249719          0.000000
H             -2.669202         -0.902204          0.000000
H             -1.780766         -2.231842          0.000000

