%NProcShared=4 
%Mem=4GB  
%Chk=H2O_H2O_271.chk 

#p CCSD(T)/cc-pVTZ 

H2O_H2O_271

0 1
O             -0.000000         -0.009833          0.000000
H             -0.799571         -0.580965          0.000000
H              0.799571         -0.580965          0.000000
O             -1.832718         -1.304136          0.000000
H             -2.548865         -0.631350          0.000000
H             -2.236887         -2.199766          0.000000

