%NProcShared=4 
%Mem=4GB  
%Chk=H2O_H2O_4277.chk 

#p CCSD(T)/cc-pVTZ 

H2O_H2O_4277

0 1
O             -0.000000         -0.009833          0.000000
H             -0.799571         -0.580965          0.000000
H              0.799571         -0.580965          0.000000
O             -4.437210         -3.178321          0.000000
H             -5.304489         -3.640202          0.000000
H             -3.719027         -3.848932          0.000000

