%NProcShared=4 
%Mem=4GB  
%Chk=H2O_H2O_3296.chk 

#p CCSD(T)/cc-pVTZ 

H2O_H2O_3296

0 1
O             -0.000000         -0.009833          0.000000
H             -0.799571         -0.580965          0.000000
H              0.799571         -0.580965          0.000000
O             -3.796415         -2.706800          0.000000
H             -4.512561         -2.034014          0.000000
H             -4.200584         -3.602430          0.000000

