%NProcShared=4 
%Mem=4GB  
%Chk=H2O_H2O_3027.chk 

#p CCSD(T)/cc-pVTZ 

H2O_H2O_3027

0 1
O             -0.000000         -0.009833          0.000000
H             -0.799571         -0.580965          0.000000
H              0.799571         -0.580965          0.000000
O             -3.625765         -2.598708          0.000000
H             -4.493044         -3.060589          0.000000
H             -2.907582         -3.269319          0.000000

