%NProcShared=4 
%Mem=4GB  
%Chk=H2O_H2O_2090.chk 

#p CCSD(T)/cc-pVTZ 

H2O_H2O_2090

0 1
O             -0.000000         -0.009833          0.000000
H             -0.799571         -0.580965          0.000000
H              0.799571         -0.580965          0.000000
O             -3.015959         -2.153916          0.000000
H             -3.935056         -1.806401          0.000000
H             -3.046620         -3.136039          0.000000

