%NProcShared=4 
%Mem=4GB  
%Chk=H2O_H2O_3638.chk 

#p CCSD(T)/cc-pVTZ 

H2O_H2O_3638

0 1
O             -0.000000         -0.009833          0.000000
H             -0.799571         -0.580965          0.000000
H              0.799571         -0.580965          0.000000
O             -4.021368         -2.873657          0.000000
H             -4.977962         -2.649080          0.000000
H             -3.923574         -3.851380          0.000000

