%NProcShared=4 
%Mem=4GB  
%Chk=H2O_H2O_602.chk 

#p CCSD(T)/cc-pVTZ 

H2O_H2O_602

0 1
O             -0.000000         -0.009833          0.000000
H             -0.799571         -0.580965          0.000000
H              0.799571         -0.580965          0.000000
O             -2.051562         -1.474258          0.000000
H             -2.918841         -1.936139          0.000000
H             -1.333379         -2.144869          0.000000

