%NProcShared=4 
%Mem=4GB  
%Chk=H2O_H2O_834.chk 

#p CCSD(T)/cc-pVTZ 

H2O_H2O_834

0 1
O             -0.000000         -0.009833          0.000000
H             -0.799571         -0.580965          0.000000
H              0.799571         -0.580965          0.000000
O             -2.201802         -1.577016          0.000000
H             -3.183925         -1.607676          0.000000
H             -1.854286         -2.496112          0.000000

