%NProcShared=4 
%Mem=4GB  
%Chk=H2O_H2O_2555.chk 

#p CCSD(T)/cc-pVTZ 

H2O_H2O_2555

0 1
O             -0.000000         -0.009833          0.000000
H             -0.799571         -0.580965          0.000000
H              0.799571         -0.580965          0.000000
O             -3.319293         -2.378017          0.000000
H             -4.260016         -2.661825          0.000000
H             -2.745740         -3.175853          0.000000

