%NProcShared=4 
%Mem=4GB  
%Chk=H2O_H2O_4933.chk 

#p CCSD(T)/cc-pVTZ 

H2O_H2O_4933

0 1
O             -0.000000         -0.009833          0.000000
H             -0.799571         -0.580965          0.000000
H              0.799571         -0.580965          0.000000
O             -4.862794         -3.478487          0.000000
H             -5.840809         -3.573316          0.000000
H             -4.455911         -4.372887          0.000000

