%NProcShared=4 
%Mem=4GB  
%Chk=H2O_H2O_3697.chk 

#p CCSD(T)/cc-pVTZ 

H2O_H2O_3697

0 1
O             -0.000000         -0.009833          0.000000
H             -0.799571         -0.580965          0.000000
H              0.799571         -0.580965          0.000000
O             -4.056182         -2.891641          0.000000
H             -4.726793         -2.173458          0.000000
H             -4.518063         -3.758920          0.000000

