%NProcShared=4 
%Mem=4GB  
%Chk=H2O_H2O_2673.chk 

#p CCSD(T)/cc-pVTZ 

H2O_H2O_2673

0 1
O             -0.000000         -0.009833          0.000000
H             -0.799571         -0.580965          0.000000
H              0.799571         -0.580965          0.000000
O             -3.390860         -2.415718          0.000000
H             -4.013064         -1.655212          0.000000
H             -3.908475         -3.250931          0.000000

