%NProcShared=4 
%Mem=4GB  
%Chk=H2O_H2O_1654.chk 

#p CCSD(T)/cc-pVTZ 

H2O_H2O_1654

0 1
O             -0.000000         -0.009833          0.000000
H             -0.799571         -0.580965          0.000000
H              0.799571         -0.580965          0.000000
O             -2.734437         -1.960882          0.000000
H             -3.654584         -2.305609          0.000000
H             -2.109930         -2.719498          0.000000

