%NProcShared=4 
%Mem=4GB  
%Chk=H2O_H2O_2936.chk 

#p CCSD(T)/cc-pVTZ 

H2O_H2O_2936

0 1
O             -0.000000         -0.009833          0.000000
H             -0.799571         -0.580965          0.000000
H              0.799571         -0.580965          0.000000
O             -3.566050         -2.549983          0.000000
H             -4.543773         -2.452188          0.000000
H             -3.341473         -3.506576          0.000000

