%NProcShared=4 
%Mem=4GB  
%Chk=H2O_H2O_1541.chk 

#p CCSD(T)/cc-pVTZ 

H2O_H2O_1541

0 1
O             -0.000000         -0.009833          0.000000
H             -0.799571         -0.580965          0.000000
H              0.799571         -0.580965          0.000000
O             -2.659263         -1.898340          0.000000
H             -3.553664         -1.491456          0.000000
H             -2.754093         -2.876355          0.000000

