%NProcShared=4 
%Mem=4GB  
%Chk=H2O_H2O_3132.chk 

#p CCSD(T)/cc-pVTZ 

H2O_H2O_3132

0 1
O             -0.000000         -0.009833          0.000000
H             -0.799571         -0.580965          0.000000
H              0.799571         -0.580965          0.000000
O             -3.693746         -2.644147          0.000000
H             -4.663465         -2.802738          0.000000
H             -3.229238         -3.510021          0.000000

