%NProcShared=4 
%Mem=4GB  
%Chk=H2O_H2O_2070.chk 

#p CCSD(T)/cc-pVTZ 

H2O_H2O_2070

0 1
O             -0.000000         -0.009833          0.000000
H             -0.799571         -0.580965          0.000000
H              0.799571         -0.580965          0.000000
O             -3.001053         -2.139406          0.000000
H             -3.759668         -1.514899          0.000000
H             -3.345779         -3.059552          0.000000

