%NProcShared=4 
%Mem=4GB  
%Chk=H2O_H2O_2529.chk 

#p CCSD(T)/cc-pVTZ 

H2O_H2O_2529

0 1
O             -0.000000         -0.009833          0.000000
H             -0.799571         -0.580965          0.000000
H              0.799571         -0.580965          0.000000
O             -3.302449         -2.366612          0.000000
H             -4.222595         -2.711338          0.000000
H             -2.677942         -3.125227          0.000000

