%NProcShared=4 
%Mem=4GB  
%Chk=H2O_H2O_1672.chk 

#p CCSD(T)/cc-pVTZ 

H2O_H2O_1672

0 1
O             -0.000000         -0.009833          0.000000
H             -0.799571         -0.580965          0.000000
H              0.799571         -0.580965          0.000000
O             -2.741641         -1.952668          0.000000
H             -3.412252         -1.234484          0.000000
H             -3.203522         -2.819946          0.000000

