%NProcShared=4 
%Mem=4GB  
%Chk=H2O_H2O_1154.chk 

#p CCSD(T)/cc-pVTZ 

H2O_H2O_1154

0 1
O             -0.000000         -0.009833          0.000000
H             -0.799571         -0.580965          0.000000
H              0.799571         -0.580965          0.000000
O             -2.409859         -1.729037          0.000000
H             -3.330006         -2.073764          0.000000
H             -1.785353         -2.487653          0.000000

