%NProcShared=4 
%Mem=4GB  
%Chk=H2O_H2O_3934.chk 

#p CCSD(T)/cc-pVTZ 

H2O_H2O_3934

0 1
O             -0.000000         -0.009833          0.000000
H             -0.799571         -0.580965          0.000000
H              0.799571         -0.580965          0.000000
O             -4.214185         -3.014456          0.000000
H             -5.196308         -3.045117          0.000000
H             -3.866670         -3.933553          0.000000

