%NProcShared=4 
%Mem=4GB  
%Chk=H2O_H2O_1951.chk 

#p CCSD(T)/cc-pVTZ 

H2O_H2O_1951

0 1
O             -0.000000         -0.009833          0.000000
H             -0.799571         -0.580965          0.000000
H              0.799571         -0.580965          0.000000
O             -2.927282         -2.100304          0.000000
H             -3.762495         -2.617918          0.000000
H             -2.166776         -2.722507          0.000000

