%NProcShared=4 
%Mem=4GB  
%Chk=H2O_H2O_162.chk 

#p CCSD(T)/cc-pVTZ 

H2O_H2O_162

0 1
O             -0.000000         -0.009833          0.000000
H             -0.799571         -0.580965          0.000000
H              0.799571         -0.580965          0.000000
O             -1.765111         -1.262801          0.000000
H             -2.734345         -1.101270          0.000000
H             -1.603580         -2.232035          0.000000

