%NProcShared=4 
%Mem=4GB  
%Chk=H2O_H2O_4772.chk 

#p CCSD(T)/cc-pVTZ 

H2O_H2O_4772

0 1
O             -0.000000         -0.009833          0.000000
H             -0.799571         -0.580965          0.000000
H              0.799571         -0.580965          0.000000
O             -4.754025         -3.390109          0.000000
H             -5.424636         -2.671925          0.000000
H             -5.215905         -4.257387          0.000000

