%NProcShared=4 
%Mem=4GB  
%Chk=H2O_H2O_52.chk 

#p CCSD(T)/cc-pVTZ 

H2O_H2O_52

0 1
O             -0.000000         -0.009833          0.000000
H             -0.799571         -0.580965          0.000000
H              0.799571         -0.580965          0.000000
O             -1.694526         -1.219228          0.000000
H             -2.561805         -1.681109          0.000000
H             -0.976343         -1.889839          0.000000

