%NProcShared=4 
%Mem=4GB  
%Chk=H2O_H2O_1664.chk 

#p CCSD(T)/cc-pVTZ 

H2O_H2O_1664

0 1
O             -0.000000         -0.009833          0.000000
H             -0.799571         -0.580965          0.000000
H              0.799571         -0.580965          0.000000
O             -2.739693         -1.957370          0.000000
H             -3.679551         -1.670711          0.000000
H             -2.706055         -2.939396          0.000000

