%NProcShared=4 
%Mem=4GB  
%Chk=H2O_H2O_879.chk 

#p CCSD(T)/cc-pVTZ 

H2O_H2O_879

0 1
O             -0.000000         -0.009833          0.000000
H             -0.799571         -0.580965          0.000000
H              0.799571         -0.580965          0.000000
O             -2.231341         -1.601522          0.000000
H             -3.151488         -1.946249          0.000000
H             -1.606835         -2.360138          0.000000

