%NProcShared=4 
%Mem=4GB  
%Chk=H2O_H2O_1906.chk 

#p CCSD(T)/cc-pVTZ 

H2O_H2O_1906

0 1
O             -0.000000         -0.009833          0.000000
H             -0.799571         -0.580965          0.000000
H              0.799571         -0.580965          0.000000
O             -2.897944         -2.076392          0.000000
H             -3.855214         -2.298066          0.000000
H             -2.377799         -2.910031          0.000000

