%NProcShared=4 
%Mem=4GB  
%Chk=H2O_H2O_4328.chk 

#p CCSD(T)/cc-pVTZ 

H2O_H2O_4328

0 1
O             -0.000000         -0.009833          0.000000
H             -0.799571         -0.580965          0.000000
H              0.799571         -0.580965          0.000000
O             -4.470303         -3.201401          0.000000
H             -5.365933         -3.605570          0.000000
H             -3.797517         -3.917547          0.000000

