%NProcShared=4 
%Mem=4GB  
%Chk=H2O_H2O_4147.chk 

#p CCSD(T)/cc-pVTZ 

H2O_H2O_4147

0 1
O             -0.000000         -0.009833          0.000000
H             -0.799571         -0.580965          0.000000
H              0.799571         -0.580965          0.000000
O             -4.348302         -3.100302          0.000000
H             -5.018913         -2.382119          0.000000
H             -4.810183         -3.967581          0.000000

