%NProcShared=4 
%Mem=4GB  
%Chk=H2O_H2O_2643.chk 

#p CCSD(T)/cc-pVTZ 

H2O_H2O_2643

0 1
O             -0.000000         -0.009833          0.000000
H             -0.799571         -0.580965          0.000000
H              0.799571         -0.580965          0.000000
O             -3.373904         -2.407246          0.000000
H             -4.207544         -1.887101          0.000000
H             -3.595578         -3.364516          0.000000

