%NProcShared=4 
%Mem=4GB  
%Chk=H2O_H2O_3715.chk 

#p CCSD(T)/cc-pVTZ 

H2O_H2O_3715

0 1
O             -0.000000         -0.009833          0.000000
H             -0.799571         -0.580965          0.000000
H              0.799571         -0.580965          0.000000
O             -4.070838         -2.907413          0.000000
H             -4.989935         -2.559898          0.000000
H             -4.101499         -3.889536          0.000000

