%NProcShared=4 
%Mem=4GB  
%Chk=H2O_H2O_951.chk 

#p CCSD(T)/cc-pVTZ 

H2O_H2O_951

0 1
O             -0.000000         -0.009833          0.000000
H             -0.799571         -0.580965          0.000000
H              0.799571         -0.580965          0.000000
O             -2.278126         -1.636613          0.000000
H             -3.113339         -2.154228          0.000000
H             -1.517621         -2.258817          0.000000

