%NProcShared=4 
%Mem=4GB  
%Chk=H2O_H2O_2202.chk 

#p CCSD(T)/cc-pVTZ 

H2O_H2O_2202

0 1
O             -0.000000         -0.009833          0.000000
H             -0.799571         -0.580965          0.000000
H              0.799571         -0.580965          0.000000
O             -3.090211         -2.216163          0.000000
H             -3.957490         -2.678044          0.000000
H             -2.372028         -2.886774          0.000000

