%NProcShared=4 
%Mem=4GB  
%Chk=H2O_H2O_2280.chk 

#p CCSD(T)/cc-pVTZ 

H2O_H2O_2280

0 1
O             -0.000000         -0.009833          0.000000
H             -0.799571         -0.580965          0.000000
H              0.799571         -0.580965          0.000000
O             -3.140776         -2.250502          0.000000
H             -4.081498         -2.534311          0.000000
H             -2.567222         -3.048338          0.000000

