%NProcShared=4 
%Mem=4GB  
%Chk=H2O_H2O_377.chk 

#p CCSD(T)/cc-pVTZ 

H2O_H2O_377

0 1
O             -0.000000         -0.009833          0.000000
H             -0.799571         -0.580965          0.000000
H              0.799571         -0.580965          0.000000
O             -1.905502         -1.369928          0.000000
H             -2.772781         -1.831809          0.000000
H             -1.187319         -2.040539          0.000000

