%NProcShared=4 
%Mem=4GB  
%Chk=H2O_H2O_4992.chk 

#p CCSD(T)/cc-pVTZ 

H2O_H2O_4992

0 1
O             -0.000000         -0.009833          0.000000
H             -0.799571         -0.580965          0.000000
H              0.799571         -0.580965          0.000000
O             -4.899155         -3.497505          0.000000
H             -5.765029         -3.032996          0.000000
H             -5.057746         -4.467224          0.000000

