%NProcShared=4 
%Mem=4GB  
%Chk=H2O_H2O_1689.chk 

#p CCSD(T)/cc-pVTZ 

H2O_H2O_1689

0 1
O             -0.000000         -0.009833          0.000000
H             -0.799571         -0.580965          0.000000
H              0.799571         -0.580965          0.000000
O             -2.755922         -1.968963          0.000000
H             -3.695780         -1.682303          0.000000
H             -2.722284         -2.950988          0.000000

