%NProcShared=4 
%Mem=4GB  
%Chk=H2O_H2O_3284.chk 

#p CCSD(T)/cc-pVTZ 

H2O_H2O_3284

0 1
O             -0.000000         -0.009833          0.000000
H             -0.799571         -0.580965          0.000000
H              0.799571         -0.580965          0.000000
O             -3.792234         -2.713057          0.000000
H             -4.774357         -2.743718          0.000000
H             -3.444718         -3.632154          0.000000

