%NProcShared=4 
%Mem=4GB  
%Chk=H2O_H2O_326.chk 

#p CCSD(T)/cc-pVTZ 

H2O_H2O_326

0 1
O             -0.000000         -0.009833          0.000000
H             -0.799571         -0.580965          0.000000
H              0.799571         -0.580965          0.000000
O             -1.872404         -1.346806          0.000000
H             -2.707617         -1.864421          0.000000
H             -1.111898         -1.969010          0.000000

