%NProcShared=4 
%Mem=4GB  
%Chk=H2O_H2O_3478.chk 

#p CCSD(T)/cc-pVTZ 

H2O_H2O_3478

0 1
O             -0.000000         -0.009833          0.000000
H             -0.799571         -0.580965          0.000000
H              0.799571         -0.580965          0.000000
O             -3.918520         -2.807264          0.000000
H             -4.814150         -3.211433          0.000000
H             -3.245735         -3.523410          0.000000

