%NProcShared=4 
%Mem=4GB  
%Chk=H2O_H2O_1407.chk 

#p CCSD(T)/cc-pVTZ 

H2O_H2O_1407

0 1
O             -0.000000         -0.009833          0.000000
H             -0.799571         -0.580965          0.000000
H              0.799571         -0.580965          0.000000
O             -2.573952         -1.844281          0.000000
H             -3.543671         -2.002872          0.000000
H             -2.109444         -2.710155          0.000000

