%NProcShared=4 
%Mem=4GB  
%Chk=H2O_H2O_1746.chk 

#p CCSD(T)/cc-pVTZ 

H2O_H2O_1746

0 1
O             -0.000000         -0.009833          0.000000
H             -0.799571         -0.580965          0.000000
H              0.799571         -0.580965          0.000000
O             -2.790223         -1.988079          0.000000
H             -3.506370         -1.315294          0.000000
H             -3.194392         -2.883710          0.000000

