%NProcShared=4 
%Mem=4GB  
%Chk=H2O_H2O_3030.chk 

#p CCSD(T)/cc-pVTZ 

H2O_H2O_3030

0 1
O             -0.000000         -0.009833          0.000000
H             -0.799571         -0.580965          0.000000
H              0.799571         -0.580965          0.000000
O             -3.627642         -2.598270          0.000000
H             -4.568365         -2.882078          0.000000
H             -3.054088         -3.396106          0.000000

