%NProcShared=4 
%Mem=4GB  
%Chk=H2O_H2O_3253.chk 

#p CCSD(T)/cc-pVTZ 

H2O_H2O_3253

0 1
O             -0.000000         -0.009833          0.000000
H             -0.799571         -0.580965          0.000000
H              0.799571         -0.580965          0.000000
O             -3.772460         -2.702934          0.000000
H             -4.668090         -3.107103          0.000000
H             -3.099675         -3.419080          0.000000

