%NProcShared=4 
%Mem=4GB  
%Chk=H2O_H2O_3088.chk 

#p CCSD(T)/cc-pVTZ 

H2O_H2O_3088

0 1
O             -0.000000         -0.009833          0.000000
H             -0.799571         -0.580965          0.000000
H              0.799571         -0.580965          0.000000
O             -3.664332         -2.618627          0.000000
H             -4.620926         -2.394051          0.000000
H             -3.566538         -3.596350          0.000000

