%NProcShared=4 
%Mem=4GB  
%Chk=H2O_H2O_3966.chk 

#p CCSD(T)/cc-pVTZ 

H2O_H2O_3966

0 1
O             -0.000000         -0.009833          0.000000
H             -0.799571         -0.580965          0.000000
H              0.799571         -0.580965          0.000000
O             -4.233467         -3.022789          0.000000
H             -5.127867         -2.615906          0.000000
H             -4.328296         -4.000804          0.000000

