%NProcShared=4 
%Mem=4GB  
%Chk=H2O_H2O_1391.chk 

#p CCSD(T)/cc-pVTZ 

H2O_H2O_1391

0 1
O             -0.000000         -0.009833          0.000000
H             -0.799571         -0.580965          0.000000
H              0.799571         -0.580965          0.000000
O             -2.561890         -1.828786          0.000000
H             -3.456291         -1.421903          0.000000
H             -2.656719         -2.806801          0.000000

