%NProcShared=4 
%Mem=4GB  
%Chk=H2O_H2O_1831.chk 

#p CCSD(T)/cc-pVTZ 

H2O_H2O_1831

0 1
O             -0.000000         -0.009833          0.000000
H             -0.799571         -0.580965          0.000000
H              0.799571         -0.580965          0.000000
O             -2.849258         -2.041615          0.000000
H             -3.806528         -2.263289          0.000000
H             -2.329113         -2.875255          0.000000

