%NProcShared=4 
%Mem=4GB  
%Chk=H2O_H2O_260.chk 

#p CCSD(T)/cc-pVTZ 

H2O_H2O_260

0 1
O             -0.000000         -0.009833          0.000000
H             -0.799571         -0.580965          0.000000
H              0.799571         -0.580965          0.000000
O             -1.829060         -1.310019          0.000000
H             -2.811086         -1.276380          0.000000
H             -1.542400         -2.249876          0.000000

