%NProcShared=4 
%Mem=4GB  
%Chk=H2O_H2O_3900.chk 

#p CCSD(T)/cc-pVTZ 

H2O_H2O_3900

0 1
O             -0.000000         -0.009833          0.000000
H             -0.799571         -0.580965          0.000000
H              0.799571         -0.580965          0.000000
O             -4.192493         -3.004521          0.000000
H             -4.992064         -3.575653          0.000000
H             -3.392922         -3.575653          0.000000

