%NProcShared=4 
%Mem=4GB  
%Chk=H2O_H2O_4928.chk 

#p CCSD(T)/cc-pVTZ 

H2O_H2O_4928

0 1
O             -0.000000         -0.009833          0.000000
H             -0.799571         -0.580965          0.000000
H              0.799571         -0.580965          0.000000
O             -4.859796         -3.479615          0.000000
H             -5.755426         -3.883784          0.000000
H             -4.187011         -4.195762          0.000000

