%NProcShared=4 
%Mem=4GB  
%Chk=H2O_H2O_3300.chk 

#p CCSD(T)/cc-pVTZ 

H2O_H2O_3300

0 1
O             -0.000000         -0.009833          0.000000
H             -0.799571         -0.580965          0.000000
H              0.799571         -0.580965          0.000000
O             -3.802999         -2.726307          0.000000
H             -4.602571         -3.297439          0.000000
H             -3.003428         -3.297439          0.000000

