%NProcShared=4 
%Mem=4GB  
%Chk=H2O_H2O_2785.chk 

#p CCSD(T)/cc-pVTZ 

H2O_H2O_2785

0 1
O             -0.000000         -0.009833          0.000000
H             -0.799571         -0.580965          0.000000
H              0.799571         -0.580965          0.000000
O             -3.468179         -2.480837          0.000000
H             -4.450204         -2.447199          0.000000
H             -3.181519         -3.420695          0.000000

