%NProcShared=4 
%Mem=4GB  
%Chk=H2O_H2O_1967.chk 

#p CCSD(T)/cc-pVTZ 

H2O_H2O_1967

0 1
O             -0.000000         -0.009833          0.000000
H             -0.799571         -0.580965          0.000000
H              0.799571         -0.580965          0.000000
O             -2.935458         -2.094841          0.000000
H             -3.801332         -1.630332          0.000000
H             -3.094049         -3.064560          0.000000

