%NProcShared=4 
%Mem=4GB  
%Chk=H2O_H2O_4600.chk 

#p CCSD(T)/cc-pVTZ 

H2O_H2O_4600

0 1
O             -0.000000         -0.009833          0.000000
H             -0.799571         -0.580965          0.000000
H              0.799571         -0.580965          0.000000
O             -4.646902         -3.329105          0.000000
H             -5.446474         -3.900237          0.000000
H             -3.847331         -3.900237          0.000000

