%NProcShared=4 
%Mem=4GB  
%Chk=H2O_H2O_4056.chk 

#p CCSD(T)/cc-pVTZ 

H2O_H2O_4056

0 1
O             -0.000000         -0.009833          0.000000
H             -0.799571         -0.580965          0.000000
H              0.799571         -0.580965          0.000000
O             -4.293630         -3.073326          0.000000
H             -5.250900         -3.295001          0.000000
H             -3.773485         -3.906966          0.000000

