%NProcShared=4 
%Mem=4GB  
%Chk=H2O_H2O_979.chk 

#p CCSD(T)/cc-pVTZ 

H2O_H2O_979

0 1
O             -0.000000         -0.009833          0.000000
H             -0.799571         -0.580965          0.000000
H              0.799571         -0.580965          0.000000
O             -2.296257         -1.647891          0.000000
H             -3.216403         -1.992618          0.000000
H             -1.671750         -2.406507          0.000000

