%NProcShared=4 
%Mem=4GB  
%Chk=H2O_H2O_3521.chk 

#p CCSD(T)/cc-pVTZ 

H2O_H2O_3521

0 1
O             -0.000000         -0.009833          0.000000
H             -0.799571         -0.580965          0.000000
H              0.799571         -0.580965          0.000000
O             -3.942475         -2.811130          0.000000
H             -4.658621         -2.138345          0.000000
H             -4.346644         -3.706760          0.000000

