%NProcShared=4 
%Mem=4GB  
%Chk=H2O_H2O_634.chk 

#p CCSD(T)/cc-pVTZ 

H2O_H2O_634

0 1
O             -0.000000         -0.009833          0.000000
H             -0.799571         -0.580965          0.000000
H              0.799571         -0.580965          0.000000
O             -2.071970         -1.484277          0.000000
H             -3.054094         -1.514938          0.000000
H             -1.724455         -2.403374          0.000000

