%NProcShared=4 
%Mem=4GB  
%Chk=H2O_H2O_1112.chk 

#p CCSD(T)/cc-pVTZ 

H2O_H2O_1112

0 1
O             -0.000000         -0.009833          0.000000
H             -0.799571         -0.580965          0.000000
H              0.799571         -0.580965          0.000000
O             -2.381810         -1.703308          0.000000
H             -3.351043         -1.541776          0.000000
H             -2.220278         -2.672541          0.000000

