%NProcShared=4 
%Mem=4GB  
%Chk=H2O_H2O_2193.chk 

#p CCSD(T)/cc-pVTZ 

H2O_H2O_2193

0 1
O             -0.000000         -0.009833          0.000000
H             -0.799571         -0.580965          0.000000
H              0.799571         -0.580965          0.000000
O             -3.081784         -2.198585          0.000000
H             -3.915424         -1.678440          0.000000
H             -3.303458         -3.155855          0.000000

