%NProcShared=4 
%Mem=4GB  
%Chk=H2O_H2O_4935.chk 

#p CCSD(T)/cc-pVTZ 

H2O_H2O_4935

0 1
O             -0.000000         -0.009833          0.000000
H             -0.799571         -0.580965          0.000000
H              0.799571         -0.580965          0.000000
O             -4.863864         -3.477772          0.000000
H             -5.845890         -3.444133          0.000000
H             -4.577204         -4.417630          0.000000

