%NProcShared=4 
%Mem=4GB  
%Chk=H2O_H2O_1467.chk 

#p CCSD(T)/cc-pVTZ 

H2O_H2O_1467

0 1
O             -0.000000         -0.009833          0.000000
H             -0.799571         -0.580965          0.000000
H              0.799571         -0.580965          0.000000
O             -2.610880         -1.862995          0.000000
H             -3.476754         -1.398487          0.000000
H             -2.769472         -2.832714          0.000000

