%NProcShared=4 
%Mem=4GB  
%Chk=H2O_H2O_937.chk 

#p CCSD(T)/cc-pVTZ 

H2O_H2O_937

0 1
O             -0.000000         -0.009833          0.000000
H             -0.799571         -0.580965          0.000000
H              0.799571         -0.580965          0.000000
O             -2.268207         -1.622162          0.000000
H             -3.237441         -1.460631          0.000000
H             -2.106676         -2.591395          0.000000

