%NProcShared=4 
%Mem=4GB  
%Chk=H2O_H2O_4662.chk 

#p CCSD(T)/cc-pVTZ 

H2O_H2O_4662

0 1
O             -0.000000         -0.009833          0.000000
H             -0.799571         -0.580965          0.000000
H              0.799571         -0.580965          0.000000
O             -4.686313         -3.349409          0.000000
H             -5.655547         -3.187878          0.000000
H             -4.524782         -4.318643          0.000000

