%NProcShared=4 
%Mem=4GB  
%Chk=H2O_H2O_1204.chk 

#p CCSD(T)/cc-pVTZ 

H2O_H2O_1204

0 1
O             -0.000000         -0.009833          0.000000
H             -0.799571         -0.580965          0.000000
H              0.799571         -0.580965          0.000000
O             -2.442317         -1.752222          0.000000
H             -3.362463         -2.096948          0.000000
H             -1.817810         -2.510837          0.000000

