%NProcShared=4 
%Mem=4GB  
%Chk=H2O_H2O_4410.chk 

#p CCSD(T)/cc-pVTZ 

H2O_H2O_4410

0 1
O             -0.000000         -0.009833          0.000000
H             -0.799571         -0.580965          0.000000
H              0.799571         -0.580965          0.000000
O             -4.523057         -3.234334          0.000000
H             -5.505083         -3.200696          0.000000
H             -4.236397         -4.174192          0.000000

