%NProcShared=4 
%Mem=4GB  
%Chk=H2O_H2O_571.chk 

#p CCSD(T)/cc-pVTZ 

H2O_H2O_571

0 1
O             -0.000000         -0.009833          0.000000
H             -0.799571         -0.580965          0.000000
H              0.799571         -0.580965          0.000000
O             -2.027465         -1.443243          0.000000
H             -2.743611         -0.770458          0.000000
H             -2.431634         -2.338873          0.000000

