%NProcShared=4 
%Mem=4GB  
%Chk=H2O_H2O_4648.chk 

#p CCSD(T)/cc-pVTZ 

H2O_H2O_4648

0 1
O             -0.000000         -0.009833          0.000000
H             -0.799571         -0.580965          0.000000
H              0.799571         -0.580965          0.000000
O             -4.672943         -3.331507          0.000000
H             -5.295147         -2.571001          0.000000
H             -5.190558         -4.166720          0.000000

