%NProcShared=4 
%Mem=4GB  
%Chk=H2O_H2O_2087.chk 

#p CCSD(T)/cc-pVTZ 

H2O_H2O_2087

0 1
O             -0.000000         -0.009833          0.000000
H             -0.799571         -0.580965          0.000000
H              0.799571         -0.580965          0.000000
O             -3.014737         -2.155406          0.000000
H             -3.983970         -1.993875          0.000000
H             -2.853206         -3.124640          0.000000

