%NProcShared=4 
%Mem=4GB  
%Chk=H2O_H2O_1961.chk 

#p CCSD(T)/cc-pVTZ 

H2O_H2O_1961

0 1
O             -0.000000         -0.009833          0.000000
H             -0.799571         -0.580965          0.000000
H              0.799571         -0.580965          0.000000
O             -2.933122         -2.097884          0.000000
H             -3.910846         -2.000090          0.000000
H             -2.708546         -3.054478          0.000000

