%NProcShared=4 
%Mem=4GB  
%Chk=H2O_H2O_3066.chk 

#p CCSD(T)/cc-pVTZ 

H2O_H2O_3066

0 1
O             -0.000000         -0.009833          0.000000
H             -0.799571         -0.580965          0.000000
H              0.799571         -0.580965          0.000000
O             -3.649226         -2.605468          0.000000
H             -4.543627         -2.198585          0.000000
H             -3.744055         -3.583483          0.000000

