%NProcShared=4 
%Mem=4GB  
%Chk=H2O_H2O_4248.chk 

#p CCSD(T)/cc-pVTZ 

H2O_H2O_4248

0 1
O             -0.000000         -0.009833          0.000000
H             -0.799571         -0.580965          0.000000
H              0.799571         -0.580965          0.000000
O             -4.413281         -3.146031          0.000000
H             -5.035485         -2.385525          0.000000
H             -4.930896         -3.981244          0.000000

