%NProcShared=4 
%Mem=4GB  
%Chk=H2O_H2O_1823.chk 

#p CCSD(T)/cc-pVTZ 

H2O_H2O_1823

0 1
O             -0.000000         -0.009833          0.000000
H             -0.799571         -0.580965          0.000000
H              0.799571         -0.580965          0.000000
O             -2.839078         -2.021581          0.000000
H             -3.461281         -1.261075          0.000000
H             -3.356692         -2.856794          0.000000

