%NProcShared=4 
%Mem=4GB  
%Chk=H2O_H2O_20.chk 

#p CCSD(T)/cc-pVTZ 

H2O_H2O_20

0 1
O             -0.000000         -0.009833          0.000000
H             -0.799571         -0.580965          0.000000
H              0.799571         -0.580965          0.000000
O             -1.670283         -1.188840          0.000000
H             -2.428898         -0.564333          0.000000
H             -2.015010         -2.108986          0.000000

