%NProcShared=4 
%Mem=4GB  
%Chk=H2O_H2O_3769.chk 

#p CCSD(T)/cc-pVTZ 

H2O_H2O_3769

0 1
O             -0.000000         -0.009833          0.000000
H             -0.799571         -0.580965          0.000000
H              0.799571         -0.580965          0.000000
O             -4.104431         -2.928295          0.000000
H             -4.902267         -2.354741          0.000000
H             -4.388239         -3.869018          0.000000

