%NProcShared=4 
%Mem=4GB  
%Chk=H2O_H2O_4959.chk 

#p CCSD(T)/cc-pVTZ 

H2O_H2O_4959

0 1
O             -0.000000         -0.009833          0.000000
H             -0.799571         -0.580965          0.000000
H              0.799571         -0.580965          0.000000
O             -4.879570         -3.489739          0.000000
H             -5.861693         -3.520400          0.000000
H             -4.532054         -4.408836          0.000000

