%NProcShared=4 
%Mem=4GB  
%Chk=H2O_H2O_1903.chk 

#p CCSD(T)/cc-pVTZ 

H2O_H2O_1903

0 1
O             -0.000000         -0.009833          0.000000
H             -0.799571         -0.580965          0.000000
H              0.799571         -0.580965          0.000000
O             -2.896099         -2.076951          0.000000
H             -3.791730         -2.481120          0.000000
H             -2.223314         -2.793098          0.000000

