%NProcShared=4 
%Mem=4GB  
%Chk=H2O_H2O_799.chk 

#p CCSD(T)/cc-pVTZ 

H2O_H2O_799

0 1
O             -0.000000         -0.009833          0.000000
H             -0.799571         -0.580965          0.000000
H              0.799571         -0.580965          0.000000
O             -2.173714         -1.545655          0.000000
H             -2.744846         -0.746084          0.000000
H             -2.744846         -2.345226          0.000000

