%NProcShared=4 
%Mem=4GB  
%Chk=H2O_H2O_2000.chk 

#p CCSD(T)/cc-pVTZ 

H2O_H2O_2000

0 1
O             -0.000000         -0.009833          0.000000
H             -0.799571         -0.580965          0.000000
H              0.799571         -0.580965          0.000000
O             -2.959097         -2.123509          0.000000
H             -3.758668         -2.694641          0.000000
H             -2.159526         -2.694641          0.000000

