%NProcShared=4 
%Mem=4GB  
%Chk=H2O_H2O_3943.chk 

#p CCSD(T)/cc-pVTZ 

H2O_H2O_3943

0 1
O             -0.000000         -0.009833          0.000000
H             -0.799571         -0.580965          0.000000
H              0.799571         -0.580965          0.000000
O             -4.217807         -3.010043          0.000000
H             -5.051447         -2.489898          0.000000
H             -4.439481         -3.967314          0.000000

