%NProcShared=4 
%Mem=4GB  
%Chk=H2O_H2O_1103.chk 

#p CCSD(T)/cc-pVTZ 

H2O_H2O_1103

0 1
O             -0.000000         -0.009833          0.000000
H             -0.799571         -0.580965          0.000000
H              0.799571         -0.580965          0.000000
O             -2.376775         -1.705999          0.000000
H             -3.272405         -2.110168          0.000000
H             -1.703989         -2.422145          0.000000

