%NProcShared=4 
%Mem=4GB  
%Chk=H2O_H2O_4905.chk 

#p CCSD(T)/cc-pVTZ 

H2O_H2O_4905

0 1
O             -0.000000         -0.009833          0.000000
H             -0.799571         -0.580965          0.000000
H              0.799571         -0.580965          0.000000
O             -4.844810         -3.467690          0.000000
H             -5.785532         -3.751498          0.000000
H             -4.271256         -4.265526          0.000000

