%NProcShared=4 
%Mem=4GB  
%Chk=H2O_H2O_4721.chk 

#p CCSD(T)/cc-pVTZ 

H2O_H2O_4721

0 1
O             -0.000000         -0.009833          0.000000
H             -0.799571         -0.580965          0.000000
H              0.799571         -0.580965          0.000000
O             -4.721462         -3.367559          0.000000
H             -5.437608         -2.694773          0.000000
H             -5.125631         -4.263189          0.000000

