%NProcShared=4 
%Mem=4GB  
%Chk=H2O_H2O_4758.chk 

#p CCSD(T)/cc-pVTZ 

H2O_H2O_4758

0 1
O             -0.000000         -0.009833          0.000000
H             -0.799571         -0.580965          0.000000
H              0.799571         -0.580965          0.000000
O             -4.749192         -3.397341          0.000000
H             -5.727207         -3.492170          0.000000
H             -4.342309         -4.291741          0.000000

