%NProcShared=4 
%Mem=4GB  
%Chk=H2O_H2O_3312.chk 

#p CCSD(T)/cc-pVTZ 

H2O_H2O_3312

0 1
O             -0.000000         -0.009833          0.000000
H             -0.799571         -0.580965          0.000000
H              0.799571         -0.580965          0.000000
O             -3.809953         -2.723427          0.000000
H             -4.779186         -2.561896          0.000000
H             -3.648421         -3.692660          0.000000

