%NProcShared=4 
%Mem=4GB  
%Chk=H2O_H2O_4462.chk 

#p CCSD(T)/cc-pVTZ 

H2O_H2O_4462

0 1
O             -0.000000         -0.009833          0.000000
H             -0.799571         -0.580965          0.000000
H              0.799571         -0.580965          0.000000
O             -4.556482         -3.256671          0.000000
H             -5.525716         -3.095140          0.000000
H             -4.394951         -4.225905          0.000000

