%NProcShared=4 
%Mem=4GB  
%Chk=H2O_H2O_4606.chk 

#p CCSD(T)/cc-pVTZ 

H2O_H2O_4606

0 1
O             -0.000000         -0.009833          0.000000
H             -0.799571         -0.580965          0.000000
H              0.799571         -0.580965          0.000000
O             -4.650665         -3.328356          0.000000
H             -5.607936         -3.550031          0.000000
H             -4.130521         -4.161996          0.000000

