%NProcShared=4 
%Mem=4GB  
%Chk=H2O_H2O_4316.chk 

#p CCSD(T)/cc-pVTZ 

H2O_H2O_4316

0 1
O             -0.000000         -0.009833          0.000000
H             -0.799571         -0.580965          0.000000
H              0.799571         -0.580965          0.000000
O             -4.460671         -3.185081          0.000000
H             -5.355072         -2.778198          0.000000
H             -4.555501         -4.163096          0.000000

