%NProcShared=4 
%Mem=4GB  
%Chk=H2O_H2O_1598.chk 

#p CCSD(T)/cc-pVTZ 

H2O_H2O_1598

0 1
O             -0.000000         -0.009833          0.000000
H             -0.799571         -0.580965          0.000000
H              0.799571         -0.580965          0.000000
O             -2.693018         -1.917251          0.000000
H             -3.315221         -1.156745          0.000000
H             -3.210632         -2.752464          0.000000

