%NProcShared=4 
%Mem=4GB  
%Chk=H2O_H2O_3816.chk 

#p CCSD(T)/cc-pVTZ 

H2O_H2O_3816

0 1
O             -0.000000         -0.009833          0.000000
H             -0.799571         -0.580965          0.000000
H              0.799571         -0.580965          0.000000
O             -4.136093         -2.953236          0.000000
H             -5.030494         -2.546352          0.000000
H             -4.230922         -3.931251          0.000000

