%NProcShared=4 
%Mem=4GB  
%Chk=H2O_H2O_4911.chk 

#p CCSD(T)/cc-pVTZ 

H2O_H2O_4911

0 1
O             -0.000000         -0.009833          0.000000
H             -0.799571         -0.580965          0.000000
H              0.799571         -0.580965          0.000000
O             -4.848132         -3.465772          0.000000
H             -5.825855         -3.367977          0.000000
H             -4.623556         -4.422365          0.000000

