%NProcShared=4 
%Mem=4GB  
%Chk=H2O_H2O_2676.chk 

#p CCSD(T)/cc-pVTZ 

H2O_H2O_2676

0 1
O             -0.000000         -0.009833          0.000000
H             -0.799571         -0.580965          0.000000
H              0.799571         -0.580965          0.000000
O             -3.397920         -2.436479          0.000000
H             -4.233133         -2.954094          0.000000
H             -2.637415         -3.058683          0.000000

