%NProcShared=4 
%Mem=4GB  
%Chk=H2O_H2O_2308.chk 

#p CCSD(T)/cc-pVTZ 

H2O_H2O_2308

0 1
O             -0.000000         -0.009833          0.000000
H             -0.799571         -0.580965          0.000000
H              0.799571         -0.580965          0.000000
O             -3.158760         -2.261299          0.000000
H             -4.136775         -2.356128          0.000000
H             -2.751877         -3.155699          0.000000

