%NProcShared=4 
%Mem=4GB  
%Chk=H2O_H2O_249.chk 

#p CCSD(T)/cc-pVTZ 

H2O_H2O_249

0 1
O             -0.000000         -0.009833          0.000000
H             -0.799571         -0.580965          0.000000
H              0.799571         -0.580965          0.000000
O             -1.816678         -1.290625          0.000000
H             -2.387810         -0.491054          0.000000
H             -2.387810         -2.090197          0.000000

