%NProcShared=4 
%Mem=4GB  
%Chk=H2O_H2O_1488.chk 

#p CCSD(T)/cc-pVTZ 

H2O_H2O_1488

0 1
O             -0.000000         -0.009833          0.000000
H             -0.799571         -0.580965          0.000000
H              0.799571         -0.580965          0.000000
O             -2.625683         -1.876722          0.000000
H             -3.582277         -1.652146          0.000000
H             -2.527889         -2.854445          0.000000

