%NProcShared=4 
%Mem=4GB  
%Chk=H2O_H2O_4769.chk 

#p CCSD(T)/cc-pVTZ 

H2O_H2O_4769

0 1
O             -0.000000         -0.009833          0.000000
H             -0.799571         -0.580965          0.000000
H              0.799571         -0.580965          0.000000
O             -4.753587         -3.391986          0.000000
H             -5.551423         -2.818432          0.000000
H             -5.037395         -4.332708          0.000000

