%NProcShared=4 
%Mem=4GB  
%Chk=H2O_H2O_2800.chk 

#p CCSD(T)/cc-pVTZ 

H2O_H2O_2800

0 1
O             -0.000000         -0.009833          0.000000
H             -0.799571         -0.580965          0.000000
H              0.799571         -0.580965          0.000000
O             -3.478422         -2.494462          0.000000
H             -4.277993         -3.065594          0.000000
H             -2.678850         -3.065594          0.000000

