%NProcShared=4 
%Mem=4GB  
%Chk=H2O_H2O_4742.chk 

#p CCSD(T)/cc-pVTZ 

H2O_H2O_4742

0 1
O             -0.000000         -0.009833          0.000000
H             -0.799571         -0.580965          0.000000
H              0.799571         -0.580965          0.000000
O             -4.736866         -3.381582          0.000000
H             -5.602740         -2.917073          0.000000
H             -4.895457         -4.351301          0.000000

