%NProcShared=4 
%Mem=4GB  
%Chk=H2O_H2O_1562.chk 

#p CCSD(T)/cc-pVTZ 

H2O_H2O_1562

0 1
O             -0.000000         -0.009833          0.000000
H             -0.799571         -0.580965          0.000000
H              0.799571         -0.580965          0.000000
O             -2.673930         -1.911968          0.000000
H             -3.643163         -1.750437          0.000000
H             -2.512399         -2.881202          0.000000

