%NProcShared=4 
%Mem=4GB  
%Chk=H2O_H2O_567.chk 

#p CCSD(T)/cc-pVTZ 

H2O_H2O_567

0 1
O             -0.000000         -0.009833          0.000000
H             -0.799571         -0.580965          0.000000
H              0.799571         -0.580965          0.000000
O             -2.026640         -1.445674          0.000000
H             -2.892514         -0.981165          0.000000
H             -2.185231         -2.415393          0.000000

