%NProcShared=4 
%Mem=4GB  
%Chk=H2O_H2O_1544.chk 

#p CCSD(T)/cc-pVTZ 

H2O_H2O_1544

0 1
O             -0.000000         -0.009833          0.000000
H             -0.799571         -0.580965          0.000000
H              0.799571         -0.580965          0.000000
O             -2.660059         -1.896584          0.000000
H             -3.457895         -1.323030          0.000000
H             -2.943867         -2.837306          0.000000

