%NProcShared=4 
%Mem=4GB  
%Chk=H2O_H2O_2536.chk 

#p CCSD(T)/cc-pVTZ 

H2O_H2O_2536

0 1
O             -0.000000         -0.009833          0.000000
H             -0.799571         -0.580965          0.000000
H              0.799571         -0.580965          0.000000
O             -3.306387         -2.364506          0.000000
H             -4.284110         -2.266712          0.000000
H             -3.081811         -3.321100          0.000000

