%NProcShared=4 
%Mem=4GB  
%Chk=H2O_H2O_4780.chk 

#p CCSD(T)/cc-pVTZ 

H2O_H2O_4780

0 1
O             -0.000000         -0.009833          0.000000
H             -0.799571         -0.580965          0.000000
H              0.799571         -0.580965          0.000000
O             -4.763665         -3.409729          0.000000
H             -5.704388         -3.693537          0.000000
H             -4.190111         -4.207565          0.000000

