%NProcShared=4 
%Mem=4GB  
%Chk=H2O_H2O_1816.chk 

#p CCSD(T)/cc-pVTZ 

H2O_H2O_1816

0 1
O             -0.000000         -0.009833          0.000000
H             -0.799571         -0.580965          0.000000
H              0.799571         -0.580965          0.000000
O             -2.837781         -2.025854          0.000000
H             -3.732182         -1.618971          0.000000
H             -2.932610         -3.003870          0.000000

