%NProcShared=4 
%Mem=4GB  
%Chk=H2O_H2O_178.chk 

#p CCSD(T)/cc-pVTZ 

H2O_H2O_178

0 1
O             -0.000000         -0.009833          0.000000
H             -0.799571         -0.580965          0.000000
H              0.799571         -0.580965          0.000000
O             -1.776306         -1.277085          0.000000
H             -2.671936         -1.681254          0.000000
H             -1.103520         -1.993231          0.000000

