%NProcShared=4 
%Mem=4GB  
%Chk=H2O_H2O_4656.chk 

#p CCSD(T)/cc-pVTZ 

H2O_H2O_4656

0 1
O             -0.000000         -0.009833          0.000000
H             -0.799571         -0.580965          0.000000
H              0.799571         -0.580965          0.000000
O             -4.683123         -3.351541          0.000000
H             -5.640393         -3.573215          0.000000
H             -4.162978         -4.185181          0.000000

