%NProcShared=4 
%Mem=4GB  
%Chk=H2O_H2O_1342.chk 

#p CCSD(T)/cc-pVTZ 

H2O_H2O_1342

0 1
O             -0.000000         -0.009833          0.000000
H             -0.799571         -0.580965          0.000000
H              0.799571         -0.580965          0.000000
O             -2.529736         -1.805034          0.000000
H             -3.395610         -1.340525          0.000000
H             -2.688327         -2.774753          0.000000

