%NProcShared=4 
%Mem=4GB  
%Chk=H2O_H2O_2117.chk 

#p CCSD(T)/cc-pVTZ 

H2O_H2O_2117

0 1
O             -0.000000         -0.009833          0.000000
H             -0.799571         -0.580965          0.000000
H              0.799571         -0.580965          0.000000
O             -3.032832         -2.164394          0.000000
H             -3.898706         -1.699885          0.000000
H             -3.191423         -3.134113          0.000000

