%NProcShared=4 
%Mem=4GB  
%Chk=H2O_H2O_449.chk 

#p CCSD(T)/cc-pVTZ 

H2O_H2O_449

0 1
O             -0.000000         -0.009833          0.000000
H             -0.799571         -0.580965          0.000000
H              0.799571         -0.580965          0.000000
O             -1.946509         -1.383363          0.000000
H             -2.517641         -0.583792          0.000000
H             -2.517641         -2.182935          0.000000

