%NProcShared=4 
%Mem=4GB  
%Chk=H2O_H2O_2150.chk 

#p CCSD(T)/cc-pVTZ 

H2O_H2O_2150

0 1
O             -0.000000         -0.009833          0.000000
H             -0.799571         -0.580965          0.000000
H              0.799571         -0.580965          0.000000
O             -3.056470         -2.193063          0.000000
H             -3.856042         -2.764195          0.000000
H             -2.256899         -2.764195          0.000000

