%NProcShared=4 
%Mem=4GB  
%Chk=H2O_H2O_1702.chk 

#p CCSD(T)/cc-pVTZ 

H2O_H2O_1702

0 1
O             -0.000000         -0.009833          0.000000
H             -0.799571         -0.580965          0.000000
H              0.799571         -0.580965          0.000000
O             -2.765634         -1.984318          0.000000
H             -3.632912         -2.446199          0.000000
H             -2.047450         -2.654929          0.000000

