%NProcShared=4 
%Mem=4GB  
%Chk=H2O_H2O_3735.chk 

#p CCSD(T)/cc-pVTZ 

H2O_H2O_3735

0 1
O             -0.000000         -0.009833          0.000000
H             -0.799571         -0.580965          0.000000
H              0.799571         -0.580965          0.000000
O             -4.084877         -2.921343          0.000000
H             -5.066903         -2.887705          0.000000
H             -3.798217         -3.861201          0.000000

