%NProcShared=4 
%Mem=4GB  
%Chk=H2O_H2O_4951.chk 

#p CCSD(T)/cc-pVTZ 

H2O_H2O_4951

0 1
O             -0.000000         -0.009833          0.000000
H             -0.799571         -0.580965          0.000000
H              0.799571         -0.580965          0.000000
O             -4.874750         -3.491375          0.000000
H             -5.709963         -4.008990          0.000000
H             -4.114244         -4.113579          0.000000

