%NProcShared=4 
%Mem=4GB  
%Chk=H2O_H2O_1940.chk 

#p CCSD(T)/cc-pVTZ 

H2O_H2O_1940

0 1
O             -0.000000         -0.009833          0.000000
H             -0.799571         -0.580965          0.000000
H              0.799571         -0.580965          0.000000
O             -2.918586         -2.084362          0.000000
H             -3.837683         -1.736847          0.000000
H             -2.949247         -3.066486          0.000000

