%NProcShared=4 
%Mem=4GB  
%Chk=H2O_H2O_1694.chk 

#p CCSD(T)/cc-pVTZ 

H2O_H2O_1694

0 1
O             -0.000000         -0.009833          0.000000
H             -0.799571         -0.580965          0.000000
H              0.799571         -0.580965          0.000000
O             -2.757432         -1.966137          0.000000
H             -3.555268         -1.392583          0.000000
H             -3.041241         -2.906860          0.000000

