%NProcShared=4 
%Mem=4GB  
%Chk=H2O_H2O_933.chk 

#p CCSD(T)/cc-pVTZ 

H2O_H2O_933

0 1
O             -0.000000         -0.009833          0.000000
H             -0.799571         -0.580965          0.000000
H              0.799571         -0.580965          0.000000
O             -2.266171         -1.623724          0.000000
H             -3.244186         -1.718553          0.000000
H             -1.859288         -2.518125          0.000000

