%NProcShared=4 
%Mem=4GB  
%Chk=H2O_H2O_303.chk 

#p CCSD(T)/cc-pVTZ 

H2O_H2O_303

0 1
O             -0.000000         -0.009833          0.000000
H             -0.799571         -0.580965          0.000000
H              0.799571         -0.580965          0.000000
O             -1.857450         -1.335046          0.000000
H             -2.753080         -1.739215          0.000000
H             -1.184665         -2.051193          0.000000

