%NProcShared=4 
%Mem=4GB  
%Chk=H2O_H2O_1434.chk 

#p CCSD(T)/cc-pVTZ 

H2O_H2O_1434

0 1
O             -0.000000         -0.009833          0.000000
H             -0.799571         -0.580965          0.000000
H              0.799571         -0.580965          0.000000
O             -2.591295         -1.855230          0.000000
H             -3.573418         -1.885891          0.000000
H             -2.243780         -2.774327          0.000000

