%NProcShared=4 
%Mem=4GB  
%Chk=H2O_H2O_3422.chk 

#p CCSD(T)/cc-pVTZ 

H2O_H2O_3422

0 1
O             -0.000000         -0.009833          0.000000
H             -0.799571         -0.580965          0.000000
H              0.799571         -0.580965          0.000000
O             -3.877664         -2.764126          0.000000
H             -4.548275         -2.045943          0.000000
H             -4.339545         -3.631405          0.000000

