%NProcShared=4 
%Mem=4GB  
%Chk=H2O_H2O_4203.chk 

#p CCSD(T)/cc-pVTZ 

H2O_H2O_4203

0 1
O             -0.000000         -0.009833          0.000000
H             -0.799571         -0.580965          0.000000
H              0.799571         -0.580965          0.000000
O             -4.389158         -3.143439          0.000000
H             -5.284788         -3.547609          0.000000
H             -3.716373         -3.859586          0.000000

