%NProcShared=4 
%Mem=4GB  
%Chk=H2O_H2O_339.chk 

#p CCSD(T)/cc-pVTZ 

H2O_H2O_339

0 1
O             -0.000000         -0.009833          0.000000
H             -0.799571         -0.580965          0.000000
H              0.799571         -0.580965          0.000000
O             -1.879562         -1.342980          0.000000
H             -2.819419         -1.056321          0.000000
H             -1.845923         -2.325006          0.000000

