%NProcShared=4 
%Mem=4GB  
%Chk=H2O_H2O_1356.chk 

#p CCSD(T)/cc-pVTZ 

H2O_H2O_1356

0 1
O             -0.000000         -0.009833          0.000000
H             -0.799571         -0.580965          0.000000
H              0.799571         -0.580965          0.000000
O             -2.540908         -1.821362          0.000000
H             -3.498179         -2.043036          0.000000
H             -2.020763         -2.655002          0.000000

