%NProcShared=4 
%Mem=4GB  
%Chk=H2O_H2O_692.chk 

#p CCSD(T)/cc-pVTZ 

H2O_H2O_692

0 1
O             -0.000000         -0.009833          0.000000
H             -0.799571         -0.580965          0.000000
H              0.799571         -0.580965          0.000000
O             -2.107784         -1.503635          0.000000
H             -2.973658         -1.039126          0.000000
H             -2.266376         -2.473354          0.000000

