%NProcShared=4 
%Mem=4GB  
%Chk=H2O_H2O_884.chk 

#p CCSD(T)/cc-pVTZ 

H2O_H2O_884

0 1
O             -0.000000         -0.009833          0.000000
H             -0.799571         -0.580965          0.000000
H              0.799571         -0.580965          0.000000
O             -2.234259         -1.600200          0.000000
H             -3.216383         -1.630861          0.000000
H             -1.886744         -2.519297          0.000000

