%NProcShared=4 
%Mem=4GB  
%Chk=H2O_H2O_4768.chk 

#p CCSD(T)/cc-pVTZ 

H2O_H2O_4768

0 1
O             -0.000000         -0.009833          0.000000
H             -0.799571         -0.580965          0.000000
H              0.799571         -0.580965          0.000000
O             -4.753360         -3.392588          0.000000
H             -5.587000         -2.872443          0.000000
H             -4.975035         -4.349858          0.000000

