%NProcShared=4 
%Mem=4GB  
%Chk=H2O_H2O_1921.chk 

#p CCSD(T)/cc-pVTZ 

H2O_H2O_1921

0 1
O             -0.000000         -0.009833          0.000000
H             -0.799571         -0.580965          0.000000
H              0.799571         -0.580965          0.000000
O             -2.903825         -2.069225          0.000000
H             -3.619972         -1.396440          0.000000
H             -3.307994         -2.964855          0.000000

