%NProcShared=4 
%Mem=4GB  
%Chk=H2O_H2O_670.chk 

#p CCSD(T)/cc-pVTZ 

H2O_H2O_670

0 1
O             -0.000000         -0.009833          0.000000
H             -0.799571         -0.580965          0.000000
H              0.799571         -0.580965          0.000000
O             -2.092234         -1.490239          0.000000
H             -2.850850         -0.865732          0.000000
H             -2.436961         -2.410385          0.000000

