%NProcShared=4 
%Mem=4GB  
%Chk=H2O_H2O_523.chk 

#p CCSD(T)/cc-pVTZ 

H2O_H2O_523

0 1
O             -0.000000         -0.009833          0.000000
H             -0.799571         -0.580965          0.000000
H              0.799571         -0.580965          0.000000
O             -1.995175         -1.418783          0.000000
H             -2.617379         -0.658278          0.000000
H             -2.512790         -2.253996          0.000000

