%NProcShared=4 
%Mem=4GB  
%Chk=H2O_H2O_601.chk 

#p CCSD(T)/cc-pVTZ 

H2O_H2O_601

0 1
O             -0.000000         -0.009833          0.000000
H             -0.799571         -0.580965          0.000000
H              0.799571         -0.580965          0.000000
O             -2.050922         -1.474321          0.000000
H             -2.886135         -1.991936          0.000000
H             -1.290416         -2.096525          0.000000

