%NProcShared=4 
%Mem=4GB  
%Chk=H2O_H2O_305.chk 

#p CCSD(T)/cc-pVTZ 

H2O_H2O_305

0 1
O             -0.000000         -0.009833          0.000000
H             -0.799571         -0.580965          0.000000
H              0.799571         -0.580965          0.000000
O             -1.858693         -1.334713          0.000000
H             -2.799415         -1.618522          0.000000
H             -1.285139         -2.132549          0.000000

