%NProcShared=4 
%Mem=4GB  
%Chk=H2O_H2O_1363.chk 

#p CCSD(T)/cc-pVTZ 

H2O_H2O_1363

0 1
O             -0.000000         -0.009833          0.000000
H             -0.799571         -0.580965          0.000000
H              0.799571         -0.580965          0.000000
O             -2.544538         -1.818761          0.000000
H             -3.501132         -1.594184          0.000000
H             -2.446744         -2.796484          0.000000

