%NProcShared=4 
%Mem=4GB  
%Chk=H2O_H2O_180.chk 

#p CCSD(T)/cc-pVTZ 

H2O_H2O_180

0 1
O             -0.000000         -0.009833          0.000000
H             -0.799571         -0.580965          0.000000
H              0.799571         -0.580965          0.000000
O             -1.777548         -1.276752          0.000000
H             -2.718271         -1.560560          0.000000
H             -1.203994         -2.074588          0.000000

