%NProcShared=4 
%Mem=4GB  
%Chk=H2O_H2O_4276.chk 

#p CCSD(T)/cc-pVTZ 

H2O_H2O_4276

0 1
O             -0.000000         -0.009833          0.000000
H             -0.799571         -0.580965          0.000000
H              0.799571         -0.580965          0.000000
O             -4.436570         -3.178384          0.000000
H             -5.271783         -3.695999          0.000000
H             -3.676064         -3.800588          0.000000

