%NProcShared=4 
%Mem=4GB  
%Chk=H2O_H2O_1159.chk 

#p CCSD(T)/cc-pVTZ 

H2O_H2O_1159

0 1
O             -0.000000         -0.009833          0.000000
H             -0.799571         -0.580965          0.000000
H              0.799571         -0.580965          0.000000
O             -2.412777         -1.727715          0.000000
H             -3.394901         -1.758376          0.000000
H             -2.065262         -2.646812          0.000000

