%NProcShared=4 
%Mem=4GB  
%Chk=H2O_H2O_2278.chk 

#p CCSD(T)/cc-pVTZ 

H2O_H2O_2278

0 1
O             -0.000000         -0.009833          0.000000
H             -0.799571         -0.580965          0.000000
H              0.799571         -0.580965          0.000000
O             -3.139533         -2.250835          0.000000
H             -4.035163         -2.655004          0.000000
H             -2.466748         -2.966982          0.000000

