%NProcShared=4 
%Mem=4GB  
%Chk=H2O_H2O_1745.chk 

#p CCSD(T)/cc-pVTZ 

H2O_H2O_1745

0 1
O             -0.000000         -0.009833          0.000000
H             -0.799571         -0.580965          0.000000
H              0.799571         -0.580965          0.000000
O             -2.790077         -1.988706          0.000000
H             -3.548693         -1.364199          0.000000
H             -3.134804         -2.908853          0.000000

