%NProcShared=4 
%Mem=4GB  
%Chk=H2O_H2O_1770.chk 

#p CCSD(T)/cc-pVTZ 

H2O_H2O_1770

0 1
O             -0.000000         -0.009833          0.000000
H             -0.799571         -0.580965          0.000000
H              0.799571         -0.580965          0.000000
O             -2.806306         -2.000298          0.000000
H             -3.564921         -1.375792          0.000000
H             -3.151033         -2.920445          0.000000

