%NProcShared=4 
%Mem=4GB  
%Chk=H2O_H2O_1880.chk 

#p CCSD(T)/cc-pVTZ 

H2O_H2O_1880

0 1
O             -0.000000         -0.009833          0.000000
H             -0.799571         -0.580965          0.000000
H              0.799571         -0.580965          0.000000
O             -2.881113         -2.065026          0.000000
H             -3.821836         -2.348834          0.000000
H             -2.307559         -2.862862          0.000000

