%NProcShared=4 
%Mem=4GB  
%Chk=H2O_H2O_3721.chk 

#p CCSD(T)/cc-pVTZ 

H2O_H2O_3721

0 1
O             -0.000000         -0.009833          0.000000
H             -0.799571         -0.580965          0.000000
H              0.799571         -0.580965          0.000000
O             -4.072306         -2.903868          0.000000
H             -4.788453         -2.231083          0.000000
H             -4.476475         -3.799498          0.000000

