%NProcShared=4 
%Mem=4GB  
%Chk=H2O_H2O_2891.chk 

#p CCSD(T)/cc-pVTZ 

H2O_H2O_2891

0 1
O             -0.000000         -0.009833          0.000000
H             -0.799571         -0.580965          0.000000
H              0.799571         -0.580965          0.000000
O             -3.535624         -2.524322          0.000000
H             -4.430024         -2.117439          0.000000
H             -3.630453         -3.502337          0.000000

