%NProcShared=4 
%Mem=4GB  
%Chk=H2O_H2O_3264.chk 

#p CCSD(T)/cc-pVTZ 

H2O_H2O_3264

0 1
O             -0.000000         -0.009833          0.000000
H             -0.799571         -0.580965          0.000000
H              0.799571         -0.580965          0.000000
O             -3.778343         -2.699275          0.000000
H             -4.718201         -2.412616          0.000000
H             -3.744704         -3.681301          0.000000

