%NProcShared=4 
%Mem=4GB  
%Chk=H2O_H2O_2564.chk 

#p CCSD(T)/cc-pVTZ 

H2O_H2O_2564

0 1
O             -0.000000         -0.009833          0.000000
H             -0.799571         -0.580965          0.000000
H              0.799571         -0.580965          0.000000
O             -3.323934         -2.374692          0.000000
H             -4.263791         -2.088032          0.000000
H             -3.290295         -3.356718          0.000000

