%NProcShared=4 
%Mem=4GB  
%Chk=H2O_H2O_3802.chk 

#p CCSD(T)/cc-pVTZ 

H2O_H2O_3802

0 1
O             -0.000000         -0.009833          0.000000
H             -0.799571         -0.580965          0.000000
H              0.799571         -0.580965          0.000000
O             -4.128861         -2.958068          0.000000
H             -4.996140         -3.419949          0.000000
H             -3.410678         -3.628679          0.000000

