%NProcShared=4 
%Mem=4GB  
%Chk=H2O_H2O_2234.chk 

#p CCSD(T)/cc-pVTZ 

H2O_H2O_2234

0 1
O             -0.000000         -0.009833          0.000000
H             -0.799571         -0.580965          0.000000
H              0.799571         -0.580965          0.000000
O             -3.110620         -2.226182          0.000000
H             -4.092743         -2.256843          0.000000
H             -2.763105         -3.145279          0.000000

