%NProcShared=4 
%Mem=4GB  
%Chk=H2O_H2O_787.chk 

#p CCSD(T)/cc-pVTZ 

H2O_H2O_787

0 1
O             -0.000000         -0.009833          0.000000
H             -0.799571         -0.580965          0.000000
H              0.799571         -0.580965          0.000000
O             -2.170834         -1.552608          0.000000
H             -3.140067         -1.391077          0.000000
H             -2.009303         -2.521842          0.000000

