%NProcShared=4 
%Mem=4GB  
%Chk=H2O_H2O_864.chk 

#p CCSD(T)/cc-pVTZ 

H2O_H2O_864

0 1
O             -0.000000         -0.009833          0.000000
H             -0.799571         -0.580965          0.000000
H              0.799571         -0.580965          0.000000
O             -2.220369         -1.586418          0.000000
H             -3.160226         -1.299758          0.000000
H             -2.186730         -2.568444          0.000000

