%NProcShared=4 
%Mem=4GB  
%Chk=H2O_H2O_4925.chk 

#p CCSD(T)/cc-pVTZ 

H2O_H2O_4925

0 1
O             -0.000000         -0.009833          0.000000
H             -0.799571         -0.580965          0.000000
H              0.799571         -0.580965          0.000000
O             -4.857878         -3.479804          0.000000
H             -5.657449         -4.050936          0.000000
H             -4.058306         -4.050936          0.000000

