%NProcShared=4 
%Mem=4GB  
%Chk=H2O_H2O_687.chk 

#p CCSD(T)/cc-pVTZ 

H2O_H2O_687

0 1
O             -0.000000         -0.009833          0.000000
H             -0.799571         -0.580965          0.000000
H              0.799571         -0.580965          0.000000
O             -2.105918         -1.506239          0.000000
H             -3.075152         -1.344708          0.000000
H             -1.944387         -2.475473          0.000000

