%NProcShared=4 
%Mem=4GB  
%Chk=H2O_H2O_1919.chk 

#p CCSD(T)/cc-pVTZ 

H2O_H2O_1919

0 1
O             -0.000000         -0.009833          0.000000
H             -0.799571         -0.580965          0.000000
H              0.799571         -0.580965          0.000000
O             -2.903492         -2.070468          0.000000
H             -3.701328         -1.496914          0.000000
H             -3.187301         -3.011190          0.000000

