%NProcShared=4 
%Mem=4GB  
%Chk=H2O_H2O_2705.chk 

#p CCSD(T)/cc-pVTZ 

H2O_H2O_2705

0 1
O             -0.000000         -0.009833          0.000000
H             -0.799571         -0.580965          0.000000
H              0.799571         -0.580965          0.000000
O             -3.416667         -2.447571          0.000000
H             -4.357389         -2.731379          0.000000
H             -2.843113         -3.245407          0.000000

