%NProcShared=4 
%Mem=4GB  
%Chk=H2O_H2O_4507.chk 

#p CCSD(T)/cc-pVTZ 

H2O_H2O_4507

0 1
O             -0.000000         -0.009833          0.000000
H             -0.799571         -0.580965          0.000000
H              0.799571         -0.580965          0.000000
O             -4.586336         -3.281722          0.000000
H             -5.556055         -3.440313          0.000000
H             -4.121827         -4.147596          0.000000

