%NProcShared=4 
%Mem=4GB  
%Chk=H2O_H2O_3961.chk 

#p CCSD(T)/cc-pVTZ 

H2O_H2O_3961

0 1
O             -0.000000         -0.009833          0.000000
H             -0.799571         -0.580965          0.000000
H              0.799571         -0.580965          0.000000
O             -4.231434         -3.025266          0.000000
H             -5.209157         -2.927471          0.000000
H             -4.006858         -3.981859          0.000000

