%NProcShared=4 
%Mem=4GB  
%Chk=H2O_H2O_4994.chk 

#p CCSD(T)/cc-pVTZ 

H2O_H2O_4994

0 1
O             -0.000000         -0.009833          0.000000
H             -0.799571         -0.580965          0.000000
H              0.799571         -0.580965          0.000000
O             -4.899647         -3.496316          0.000000
H             -5.697483         -2.922762          0.000000
H             -5.183455         -4.437039          0.000000

