%NProcShared=4 
%Mem=4GB  
%Chk=H2O_H2O_1787.chk 

#p CCSD(T)/cc-pVTZ 

H2O_H2O_1787

0 1
O             -0.000000         -0.009833          0.000000
H             -0.799571         -0.580965          0.000000
H              0.799571         -0.580965          0.000000
O             -2.819990         -2.016299          0.000000
H             -3.789223         -1.854768          0.000000
H             -2.658459         -2.985532          0.000000

