%NProcShared=4 
%Mem=4GB  
%Chk=H2O_H2O_739.chk 

#p CCSD(T)/cc-pVTZ 

H2O_H2O_739

0 1
O             -0.000000         -0.009833          0.000000
H             -0.799571         -0.580965          0.000000
H              0.799571         -0.580965          0.000000
O             -2.139224         -1.528457          0.000000
H             -3.079082         -1.241797          0.000000
H             -2.105585         -2.510482          0.000000

