%NProcShared=4 
%Mem=4GB  
%Chk=H2O_H2O_2912.chk 

#p CCSD(T)/cc-pVTZ 

H2O_H2O_2912

0 1
O             -0.000000         -0.009833          0.000000
H             -0.799571         -0.580965          0.000000
H              0.799571         -0.580965          0.000000
O             -3.550290         -2.537951          0.000000
H             -4.519524         -2.376420          0.000000
H             -3.388759         -3.507184          0.000000

