%NProcShared=4 
%Mem=4GB  
%Chk=H2O_H2O_2858.chk 

#p CCSD(T)/cc-pVTZ 

H2O_H2O_2858

0 1
O             -0.000000         -0.009833          0.000000
H             -0.799571         -0.580965          0.000000
H              0.799571         -0.580965          0.000000
O             -3.515796         -2.516329          0.000000
H             -4.493811         -2.611158          0.000000
H             -3.108913         -3.410729          0.000000

