%NProcShared=4 
%Mem=4GB  
%Chk=H2O_H2O_2875.chk 

#p CCSD(T)/cc-pVTZ 

H2O_H2O_2875

0 1
O             -0.000000         -0.009833          0.000000
H             -0.799571         -0.580965          0.000000
H              0.799571         -0.580965          0.000000
O             -3.527108         -2.529238          0.000000
H             -4.326680         -3.100370          0.000000
H             -2.727537         -3.100370          0.000000

