%NProcShared=4 
%Mem=4GB  
%Chk=H2O_H2O_4116.chk 

#p CCSD(T)/cc-pVTZ 

H2O_H2O_4116

0 1
O             -0.000000         -0.009833          0.000000
H             -0.799571         -0.580965          0.000000
H              0.799571         -0.580965          0.000000
O             -4.330840         -3.092343          0.000000
H             -5.225240         -2.685460          0.000000
H             -4.425669         -4.070358          0.000000

