%NProcShared=4 
%Mem=4GB  
%Chk=H2O_H2O_3604.chk 

#p CCSD(T)/cc-pVTZ 

H2O_H2O_3604

0 1
O             -0.000000         -0.009833          0.000000
H             -0.799571         -0.580965          0.000000
H              0.799571         -0.580965          0.000000
O             -4.000291         -2.865079          0.000000
H             -4.920438         -3.209806          0.000000
H             -3.375784         -3.623695          0.000000

