%NProcShared=4 
%Mem=4GB  
%Chk=H2O_H2O_2507.chk 

#p CCSD(T)/cc-pVTZ 

H2O_H2O_2507

0 1
O             -0.000000         -0.009833          0.000000
H             -0.799571         -0.580965          0.000000
H              0.799571         -0.580965          0.000000
O             -3.288024         -2.354341          0.000000
H             -4.257743         -2.512932          0.000000
H             -2.823515         -3.220215          0.000000

