%NProcShared=4 
%Mem=4GB  
%Chk=H2O_H2O_4359.chk 

#p CCSD(T)/cc-pVTZ 

H2O_H2O_4359

0 1
O             -0.000000         -0.009833          0.000000
H             -0.799571         -0.580965          0.000000
H              0.799571         -0.580965          0.000000
O             -4.490076         -3.211525          0.000000
H             -5.472199         -3.242186          0.000000
H             -4.142561         -4.130622          0.000000

