%NProcShared=4 
%Mem=4GB  
%Chk=H2O_H2O_2171.chk 

#p CCSD(T)/cc-pVTZ 

H2O_H2O_2171

0 1
O             -0.000000         -0.009833          0.000000
H             -0.799571         -0.580965          0.000000
H              0.799571         -0.580965          0.000000
O             -3.066115         -2.185148          0.000000
H             -3.782261         -1.512363          0.000000
H             -3.470284         -3.080778          0.000000

