%NProcShared=4 
%Mem=4GB  
%Chk=H2O_H2O_4670.chk 

#p CCSD(T)/cc-pVTZ 

H2O_H2O_4670

0 1
O             -0.000000         -0.009833          0.000000
H             -0.799571         -0.580965          0.000000
H              0.799571         -0.580965          0.000000
O             -4.688858         -3.345001          0.000000
H             -5.447473         -2.720494          0.000000
H             -5.033585         -4.265148          0.000000

