%NProcShared=4 
%Mem=4GB  
%Chk=H2O_H2O_3745.chk 

#p CCSD(T)/cc-pVTZ 

H2O_H2O_3745

0 1
O             -0.000000         -0.009833          0.000000
H             -0.799571         -0.580965          0.000000
H              0.799571         -0.580965          0.000000
O             -4.088389         -2.916087          0.000000
H             -4.847004         -2.291580          0.000000
H             -4.433116         -3.836234          0.000000

