%NProcShared=4 
%Mem=4GB  
%Chk=H2O_H2O_3223.chk 

#p CCSD(T)/cc-pVTZ 

H2O_H2O_3223

0 1
O             -0.000000         -0.009833          0.000000
H             -0.799571         -0.580965          0.000000
H              0.799571         -0.580965          0.000000
O             -3.747896         -2.670748          0.000000
H             -4.370100         -1.910242          0.000000
H             -4.265511         -3.505961          0.000000

