%NProcShared=4 
%Mem=4GB  
%Chk=H2O_H2O_2550.chk 

#p CCSD(T)/cc-pVTZ 

H2O_H2O_2550

0 1
O             -0.000000         -0.009833          0.000000
H             -0.799571         -0.580965          0.000000
H              0.799571         -0.580965          0.000000
O             -3.316133         -2.378539          0.000000
H             -4.115704         -2.949671          0.000000
H             -2.516561         -2.949671          0.000000

