%NProcShared=4 
%Mem=4GB  
%Chk=H2O_H2O_3944.chk 

#p CCSD(T)/cc-pVTZ 

H2O_H2O_3944

0 1
O             -0.000000         -0.009833          0.000000
H             -0.799571         -0.580965          0.000000
H              0.799571         -0.580965          0.000000
O             -4.218033         -3.009441          0.000000
H             -5.015869         -2.435887          0.000000
H             -4.501842         -3.950164          0.000000

