%NProcShared=4 
%Mem=4GB  
%Chk=H2O_H2O_4938.chk 

#p CCSD(T)/cc-pVTZ 

H2O_H2O_4938

0 1
O             -0.000000         -0.009833          0.000000
H             -0.799571         -0.580965          0.000000
H              0.799571         -0.580965          0.000000
O             -4.865271         -3.476454          0.000000
H             -5.821865         -3.251878          0.000000
H             -4.767476         -4.454178          0.000000

