%NProcShared=4 
%Mem=4GB  
%Chk=H2O_H2O_1281.chk 

#p CCSD(T)/cc-pVTZ 

H2O_H2O_1281

0 1
O             -0.000000         -0.009833          0.000000
H             -0.799571         -0.580965          0.000000
H              0.799571         -0.580965          0.000000
O             -2.492222         -1.786585          0.000000
H             -3.449492         -2.008259          0.000000
H             -1.972077         -2.620225          0.000000

