%NProcShared=4 
%Mem=4GB  
%Chk=H2O_H2O_3047.chk 

#p CCSD(T)/cc-pVTZ 

H2O_H2O_3047

0 1
O             -0.000000         -0.009833          0.000000
H             -0.799571         -0.580965          0.000000
H              0.799571         -0.580965          0.000000
O             -3.634231         -2.590242          0.000000
H             -4.304842         -1.872059          0.000000
H             -4.096111         -3.457521          0.000000

