%NProcShared=4 
%Mem=4GB  
%Chk=H2O_H2O_3401.chk 

#p CCSD(T)/cc-pVTZ 

H2O_H2O_3401

0 1
O             -0.000000         -0.009833          0.000000
H             -0.799571         -0.580965          0.000000
H              0.799571         -0.580965          0.000000
O             -3.868558         -2.772655          0.000000
H             -4.703772         -3.290270          0.000000
H             -3.108053         -3.394859          0.000000

