%NProcShared=4 
%Mem=4GB  
%Chk=H2O_H2O_2372.chk 

#p CCSD(T)/cc-pVTZ 

H2O_H2O_2372

0 1
O             -0.000000         -0.009833          0.000000
H             -0.799571         -0.580965          0.000000
H              0.799571         -0.580965          0.000000
O             -3.196050         -2.277251          0.000000
H             -3.866661         -1.559068          0.000000
H             -3.657931         -3.144530          0.000000

