%NProcShared=4 
%Mem=4GB  
%Chk=H2O_H2O_2706.chk 

#p CCSD(T)/cc-pVTZ 

H2O_H2O_2706

0 1
O             -0.000000         -0.009833          0.000000
H             -0.799571         -0.580965          0.000000
H              0.799571         -0.580965          0.000000
O             -3.417269         -2.447344          0.000000
H             -4.374539         -2.669019          0.000000
H             -2.897124         -3.280984          0.000000

