%NProcShared=4 
%Mem=4GB  
%Chk=H2O_H2O_181.chk 

#p CCSD(T)/cc-pVTZ 

H2O_H2O_181

0 1
O             -0.000000         -0.009833          0.000000
H             -0.799571         -0.580965          0.000000
H              0.799571         -0.580965          0.000000
O             -1.778150         -1.276525          0.000000
H             -2.735421         -1.498200          0.000000
H             -1.258005         -2.110165          0.000000

