%NProcShared=4 
%Mem=4GB  
%Chk=H2O_H2O_1647.chk 

#p CCSD(T)/cc-pVTZ 

H2O_H2O_1647

0 1
O             -0.000000         -0.009833          0.000000
H             -0.799571         -0.580965          0.000000
H              0.799571         -0.580965          0.000000
O             -2.725412         -1.941075          0.000000
H             -3.396023         -1.222892          0.000000
H             -3.187293         -2.808354          0.000000

