%NProcShared=4 
%Mem=4GB  
%Chk=H2O_H2O_1304.chk 

#p CCSD(T)/cc-pVTZ 

H2O_H2O_1304

0 1
O             -0.000000         -0.009833          0.000000
H             -0.799571         -0.580965          0.000000
H              0.799571         -0.580965          0.000000
O             -2.507233         -1.798591          0.000000
H             -3.427379         -2.143317          0.000000
H             -1.882726         -2.557206          0.000000

