%NProcShared=4 
%Mem=4GB  
%Chk=H2O_H2O_4343.chk 

#p CCSD(T)/cc-pVTZ 

H2O_H2O_4343

0 1
O             -0.000000         -0.009833          0.000000
H             -0.799571         -0.580965          0.000000
H              0.799571         -0.580965          0.000000
O             -4.477469         -3.195519          0.000000
H             -5.311109         -2.675375          0.000000
H             -4.699144         -4.152790          0.000000

