%NProcShared=4 
%Mem=4GB  
%Chk=H2O_H2O_4090.chk 

#p CCSD(T)/cc-pVTZ 

H2O_H2O_4090

0 1
O             -0.000000         -0.009833          0.000000
H             -0.799571         -0.580965          0.000000
H              0.799571         -0.580965          0.000000
O             -4.314271         -3.081297          0.000000
H             -5.233368         -2.733782          0.000000
H             -4.344932         -4.063420          0.000000

