%NProcShared=4 
%Mem=4GB  
%Chk=H2O_H2O_3431.chk 

#p CCSD(T)/cc-pVTZ 

H2O_H2O_3431

0 1
O             -0.000000         -0.009833          0.000000
H             -0.799571         -0.580965          0.000000
H              0.799571         -0.580965          0.000000
O             -3.887907         -2.783520          0.000000
H             -4.845177         -3.005194          0.000000
H             -3.367762         -3.617160          0.000000

