%NProcShared=4 
%Mem=4GB  
%Chk=H2O_H2O_240.chk 

#p CCSD(T)/cc-pVTZ 

H2O_H2O_240

0 1
O             -0.000000         -0.009833          0.000000
H             -0.799571         -0.580965          0.000000
H              0.799571         -0.580965          0.000000
O             -1.815021         -1.296088          0.000000
H             -2.734118         -0.948573          0.000000
H             -1.845682         -2.278211          0.000000

