%NProcShared=4 
%Mem=4GB  
%Chk=H2O_H2O_971.chk 

#p CCSD(T)/cc-pVTZ 

H2O_H2O_971

0 1
O             -0.000000         -0.009833          0.000000
H             -0.799571         -0.580965          0.000000
H              0.799571         -0.580965          0.000000
O             -2.287127         -1.628719          0.000000
H             -3.003274         -0.955934          0.000000
H             -2.691296         -2.524349          0.000000

