%NProcShared=4 
%Mem=4GB  
%Chk=H2O_H2O_374.chk 

#p CCSD(T)/cc-pVTZ 

H2O_H2O_374

0 1
O             -0.000000         -0.009833          0.000000
H             -0.799571         -0.580965          0.000000
H              0.799571         -0.580965          0.000000
O             -1.897823         -1.348587          0.000000
H             -2.468955         -0.549015          0.000000
H             -2.468955         -2.148158          0.000000

