%NProcShared=4 
%Mem=4GB  
%Chk=H2O_H2O_2249.chk 

#p CCSD(T)/cc-pVTZ 

H2O_H2O_2249

0 1
O             -0.000000         -0.009833          0.000000
H             -0.799571         -0.580965          0.000000
H              0.799571         -0.580965          0.000000
O             -3.114990         -2.218007          0.000000
H             -3.686122         -1.418435          0.000000
H             -3.686122         -3.017578          0.000000

