%NProcShared=4 
%Mem=4GB  
%Chk=H2O_H2O_3760.chk 

#p CCSD(T)/cc-pVTZ 

H2O_H2O_3760

0 1
O             -0.000000         -0.009833          0.000000
H             -0.799571         -0.580965          0.000000
H              0.799571         -0.580965          0.000000
O             -4.101106         -2.932936          0.000000
H             -5.083131         -2.899297          0.000000
H             -3.814446         -3.872793          0.000000

