%NProcShared=4 
%Mem=4GB  
%Chk=H2O_H2O_3196.chk 

#p CCSD(T)/cc-pVTZ 

H2O_H2O_3196

0 1
O             -0.000000         -0.009833          0.000000
H             -0.799571         -0.580965          0.000000
H              0.799571         -0.580965          0.000000
O             -3.731499         -2.660431          0.000000
H             -4.447646         -1.987645          0.000000
H             -4.135668         -3.556061          0.000000

