%NProcShared=4 
%Mem=4GB  
%Chk=H2O_H2O_2909.chk 

#p CCSD(T)/cc-pVTZ 

H2O_H2O_2909

0 1
O             -0.000000         -0.009833          0.000000
H             -0.799571         -0.580965          0.000000
H              0.799571         -0.580965          0.000000
O             -3.548800         -2.539174          0.000000
H             -4.530923         -2.569834          0.000000
H             -3.201285         -3.458270          0.000000

