%NProcShared=4 
%Mem=4GB  
%Chk=H2O_H2O_1278.chk 

#p CCSD(T)/cc-pVTZ 

H2O_H2O_1278

0 1
O             -0.000000         -0.009833          0.000000
H             -0.799571         -0.580965          0.000000
H              0.799571         -0.580965          0.000000
O             -2.490377         -1.787145          0.000000
H             -3.386007         -2.191314          0.000000
H             -1.817592         -2.503291          0.000000

