%NProcShared=4 
%Mem=4GB  
%Chk=H2O_H2O_1055.chk 

#p CCSD(T)/cc-pVTZ 

H2O_H2O_1055

0 1
O             -0.000000         -0.009833          0.000000
H             -0.799571         -0.580965          0.000000
H              0.799571         -0.580965          0.000000
O             -2.345559         -1.682481          0.000000
H             -3.286282         -1.966290          0.000000
H             -1.772005         -2.480317          0.000000

