%NProcShared=4 
%Mem=4GB  
%Chk=H2O_H2O_2766.chk 

#p CCSD(T)/cc-pVTZ 

H2O_H2O_2766

0 1
O             -0.000000         -0.009833          0.000000
H             -0.799571         -0.580965          0.000000
H              0.799571         -0.580965          0.000000
O             -3.454479         -2.466361          0.000000
H             -4.348880         -2.059477          0.000000
H             -3.549309         -3.444376          0.000000

