%NProcShared=4 
%Mem=4GB  
%Chk=H2O_H2O_4617.chk 

#p CCSD(T)/cc-pVTZ 

H2O_H2O_4617

0 1
O             -0.000000         -0.009833          0.000000
H             -0.799571         -0.580965          0.000000
H              0.799571         -0.580965          0.000000
O             -4.655722         -3.323621          0.000000
H             -5.521596         -2.859112          0.000000
H             -4.814313         -4.293340          0.000000

