%NProcShared=4 
%Mem=4GB  
%Chk=H2O_H2O_753.chk 

#p CCSD(T)/cc-pVTZ 

H2O_H2O_753

0 1
O             -0.000000         -0.009833          0.000000
H             -0.799571         -0.580965          0.000000
H              0.799571         -0.580965          0.000000
O             -2.149570         -1.543707          0.000000
H             -3.045201         -1.947876          0.000000
H             -1.476785         -2.259853          0.000000

