%NProcShared=4 
%Mem=4GB  
%Chk=H2O_H2O_713.chk 

#p CCSD(T)/cc-pVTZ 

H2O_H2O_713

0 1
O             -0.000000         -0.009833          0.000000
H             -0.799571         -0.580965          0.000000
H              0.799571         -0.580965          0.000000
O             -2.122587         -1.517362          0.000000
H             -3.079181         -1.292786          0.000000
H             -2.024793         -2.495085          0.000000

