%NProcShared=4 
%Mem=4GB  
%Chk=H2O_H2O_2497.chk 

#p CCSD(T)/cc-pVTZ 

H2O_H2O_2497

0 1
O             -0.000000         -0.009833          0.000000
H             -0.799571         -0.580965          0.000000
H              0.799571         -0.580965          0.000000
O             -3.277195         -2.335213          0.000000
H             -3.947806         -1.617029          0.000000
H             -3.739076         -3.202491          0.000000

