%NProcShared=4 
%Mem=4GB  
%Chk=H2O_H2O_4028.chk 

#p CCSD(T)/cc-pVTZ 

H2O_H2O_4028

0 1
O             -0.000000         -0.009833          0.000000
H             -0.799571         -0.580965          0.000000
H              0.799571         -0.580965          0.000000
O             -4.275556         -3.062294          0.000000
H             -5.171186         -3.466463          0.000000
H             -3.602771         -3.778440          0.000000

