%NProcShared=4 
%Mem=4GB  
%Chk=H2O_H2O_3858.chk 

#p CCSD(T)/cc-pVTZ 

H2O_H2O_3858

0 1
O             -0.000000         -0.009833          0.000000
H             -0.799571         -0.580965          0.000000
H              0.799571         -0.580965          0.000000
O             -4.164952         -2.980019          0.000000
H             -5.142967         -3.074848          0.000000
H             -3.758069         -3.874420          0.000000

