%NProcShared=4 
%Mem=4GB  
%Chk=H2O_H2O_4198.chk 

#p CCSD(T)/cc-pVTZ 

H2O_H2O_4198

0 1
O             -0.000000         -0.009833          0.000000
H             -0.799571         -0.580965          0.000000
H              0.799571         -0.580965          0.000000
O             -4.380823         -3.122846          0.000000
H             -5.003027         -2.362341          0.000000
H             -4.898438         -3.958059          0.000000

