%NProcShared=4 
%Mem=4GB  
%Chk=H2O_H2O_4893.chk 

#p CCSD(T)/cc-pVTZ 

H2O_H2O_4893

0 1
O             -0.000000         -0.009833          0.000000
H             -0.799571         -0.580965          0.000000
H              0.799571         -0.580965          0.000000
O             -4.834505         -3.450550          0.000000
H             -5.668145         -2.930405          0.000000
H             -5.056179         -4.407820          0.000000

