%NProcShared=4 
%Mem=4GB  
%Chk=H2O_H2O_947.chk 

#p CCSD(T)/cc-pVTZ 

H2O_H2O_947

0 1
O             -0.000000         -0.009833          0.000000
H             -0.799571         -0.580965          0.000000
H              0.799571         -0.580965          0.000000
O             -2.271003         -1.616492          0.000000
H             -2.941614         -0.898309          0.000000
H             -2.732884         -2.483771          0.000000

