%NProcShared=4 
%Mem=4GB  
%Chk=H2O_H2O_3940.chk 

#p CCSD(T)/cc-pVTZ 

H2O_H2O_3940

0 1
O             -0.000000         -0.009833          0.000000
H             -0.799571         -0.580965          0.000000
H              0.799571         -0.580965          0.000000
O             -4.216898         -3.011743          0.000000
H             -5.135995         -2.664228          0.000000
H             -4.247559         -3.993867          0.000000

