%NProcShared=4 
%Mem=4GB  
%Chk=H2O_H2O_2857.chk 

#p CCSD(T)/cc-pVTZ 

H2O_H2O_2857

0 1
O             -0.000000         -0.009833          0.000000
H             -0.799571         -0.580965          0.000000
H              0.799571         -0.580965          0.000000
O             -3.515229         -2.516632          0.000000
H             -4.484948         -2.675224          0.000000
H             -3.050720         -3.382506          0.000000

