%NProcShared=4 
%Mem=4GB  
%Chk=H2O_H2O_4371.chk 

#p CCSD(T)/cc-pVTZ 

H2O_H2O_4371

0 1
O             -0.000000         -0.009833          0.000000
H             -0.799571         -0.580965          0.000000
H              0.799571         -0.580965          0.000000
O             -4.494257         -3.205267          0.000000
H             -5.210404         -2.532482          0.000000
H             -4.898426         -4.100897          0.000000

