%NProcShared=4 
%Mem=4GB  
%Chk=H2O_H2O_2304.chk 

#p CCSD(T)/cc-pVTZ 

H2O_H2O_2304

0 1
O             -0.000000         -0.009833          0.000000
H             -0.799571         -0.580965          0.000000
H              0.799571         -0.580965          0.000000
O             -3.156389         -2.262281          0.000000
H             -4.076535         -2.607008          0.000000
H             -2.531882         -3.020897          0.000000

