%NProcShared=4 
%Mem=4GB  
%Chk=H2O_H2O_2182.chk 

#p CCSD(T)/cc-pVTZ 

H2O_H2O_2182

0 1
O             -0.000000         -0.009833          0.000000
H             -0.799571         -0.580965          0.000000
H              0.799571         -0.580965          0.000000
O             -3.077048         -2.203641          0.000000
H             -4.046767         -2.362232          0.000000
H             -2.612540         -3.069515          0.000000

