%NProcShared=4 
%Mem=4GB  
%Chk=H2O_H2O_60.chk 

#p CCSD(T)/cc-pVTZ 

H2O_H2O_60

0 1
O             -0.000000         -0.009833          0.000000
H             -0.799571         -0.580965          0.000000
H              0.799571         -0.580965          0.000000
O             -1.699229         -1.217281          0.000000
H             -2.681255         -1.183642          0.000000
H             -1.412569         -2.157138          0.000000

