%NProcShared=4 
%Mem=4GB  
%Chk=H2O_H2O_272.chk 

#p CCSD(T)/cc-pVTZ 

H2O_H2O_272

0 1
O             -0.000000         -0.009833          0.000000
H             -0.799571         -0.580965          0.000000
H              0.799571         -0.580965          0.000000
O             -1.832823         -1.303501          0.000000
H             -2.503434         -0.585318          0.000000
H             -2.294704         -2.170780          0.000000

