%NProcShared=4 
%Mem=4GB  
%Chk=H2O_H2O_1044.chk 

#p CCSD(T)/cc-pVTZ 

H2O_H2O_1044

0 1
O             -0.000000         -0.009833          0.000000
H             -0.799571         -0.580965          0.000000
H              0.799571         -0.580965          0.000000
O             -2.335481         -1.664738          0.000000
H             -3.133317         -1.091185          0.000000
H             -2.619289         -2.605461          0.000000

