%NProcShared=4 
%Mem=4GB  
%Chk=H2O_H2O_3893.chk 

#p CCSD(T)/cc-pVTZ 

H2O_H2O_3893

0 1
O             -0.000000         -0.009833          0.000000
H             -0.799571         -0.580965          0.000000
H              0.799571         -0.580965          0.000000
O             -4.185349         -2.986859          0.000000
H             -5.018989         -2.466714          0.000000
H             -4.407023         -3.944129          0.000000

