%NProcShared=4 
%Mem=4GB  
%Chk=H2O_H2O_2690.chk 

#p CCSD(T)/cc-pVTZ 

H2O_H2O_2690

0 1
O             -0.000000         -0.009833          0.000000
H             -0.799571         -0.580965          0.000000
H              0.799571         -0.580965          0.000000
O             -3.405453         -2.432130          0.000000
H             -4.324550         -2.084615          0.000000
H             -3.436114         -3.414253          0.000000

