%NProcShared=4 
%Mem=4GB  
%Chk=H2O_H2O_817.chk 

#p CCSD(T)/cc-pVTZ 

H2O_H2O_817

0 1
O             -0.000000         -0.009833          0.000000
H             -0.799571         -0.580965          0.000000
H              0.799571         -0.580965          0.000000
O             -2.188929         -1.561596          0.000000
H             -3.054803         -1.097088          0.000000
H             -2.347520         -2.531315          0.000000

