%NProcShared=4 
%Mem=4GB  
%Chk=H2O_H2O_144.chk 

#p CCSD(T)/cc-pVTZ 

H2O_H2O_144

0 1
O             -0.000000         -0.009833          0.000000
H             -0.799571         -0.580965          0.000000
H              0.799571         -0.580965          0.000000
O             -1.751241         -1.247417          0.000000
H             -2.549077         -0.673863          0.000000
H             -2.035049         -2.188140          0.000000

