%NProcShared=4 
%Mem=4GB  
%Chk=H2O_H2O_4637.chk 

#p CCSD(T)/cc-pVTZ 

H2O_H2O_4637

0 1
O             -0.000000         -0.009833          0.000000
H             -0.799571         -0.580965          0.000000
H              0.799571         -0.580965          0.000000
O             -4.670084         -3.337817          0.000000
H             -5.639318         -3.176286          0.000000
H             -4.508553         -4.307050          0.000000

