%NProcShared=4 
%Mem=4GB  
%Chk=H2O_H2O_4318.chk 

#p CCSD(T)/cc-pVTZ 

H2O_H2O_4318

0 1
O             -0.000000         -0.009833          0.000000
H             -0.799571         -0.580965          0.000000
H              0.799571         -0.580965          0.000000
O             -4.461240         -3.183927          0.000000
H             -5.294880         -2.663782          0.000000
H             -4.682915         -4.141198          0.000000

