%NProcShared=4 
%Mem=4GB  
%Chk=H2O_H2O_3157.chk 

#p CCSD(T)/cc-pVTZ 

H2O_H2O_3157

0 1
O             -0.000000         -0.009833          0.000000
H             -0.799571         -0.580965          0.000000
H              0.799571         -0.580965          0.000000
O             -3.709975         -2.655739          0.000000
H             -4.679694         -2.814331          0.000000
H             -3.245467         -3.521613          0.000000

