%NProcShared=4 
%Mem=4GB  
%Chk=H2O_H2O_4759.chk 

#p CCSD(T)/cc-pVTZ 

H2O_H2O_4759

0 1
O             -0.000000         -0.009833          0.000000
H             -0.799571         -0.580965          0.000000
H              0.799571         -0.580965          0.000000
O             -4.749739         -3.397001          0.000000
H             -5.731862         -3.427662          0.000000
H             -4.402223         -4.316098          0.000000

