%NProcShared=4 
%Mem=4GB  
%Chk=H2O_H2O_2469.chk 

#p CCSD(T)/cc-pVTZ 

H2O_H2O_2469

0 1
O             -0.000000         -0.009833          0.000000
H             -0.799571         -0.580965          0.000000
H              0.799571         -0.580965          0.000000
O             -3.260528         -2.325497          0.000000
H             -4.058364         -1.751944          0.000000
H             -3.544336         -3.266220          0.000000

