%NProcShared=4 
%Mem=4GB  
%Chk=H2O_H2O_3455.chk 

#p CCSD(T)/cc-pVTZ 

H2O_H2O_3455

0 1
O             -0.000000         -0.009833          0.000000
H             -0.799571         -0.580965          0.000000
H              0.799571         -0.580965          0.000000
O             -3.903534         -2.795339          0.000000
H             -4.844256         -3.079147          0.000000
H             -3.329980         -3.593175          0.000000

