%NProcShared=4 
%Mem=4GB  
%Chk=H2O_H2O_3555.chk 

#p CCSD(T)/cc-pVTZ 

H2O_H2O_3555

0 1
O             -0.000000         -0.009833          0.000000
H             -0.799571         -0.580965          0.000000
H              0.799571         -0.580965          0.000000
O             -3.968449         -2.841708          0.000000
H             -4.909172         -3.125516          0.000000
H             -3.394895         -3.639544          0.000000

