%NProcShared=4 
%Mem=4GB  
%Chk=H2O_H2O_4061.chk 

#p CCSD(T)/cc-pVTZ 

H2O_H2O_4061

0 1
O             -0.000000         -0.009833          0.000000
H             -0.799571         -0.580965          0.000000
H              0.799571         -0.580965          0.000000
O             -4.296350         -3.071635          0.000000
H             -5.274073         -2.973840          0.000000
H             -4.071774         -4.028228          0.000000

