%NProcShared=4 
%Mem=4GB  
%Chk=H2O_H2O_1992.chk 

#p CCSD(T)/cc-pVTZ 

H2O_H2O_1992

0 1
O             -0.000000         -0.009833          0.000000
H             -0.799571         -0.580965          0.000000
H              0.799571         -0.580965          0.000000
O             -2.951687         -2.106433          0.000000
H             -3.817561         -1.641924          0.000000
H             -3.110278         -3.076152          0.000000

