%NProcShared=4 
%Mem=4GB  
%Chk=H2O_H2O_2059.chk 

#p CCSD(T)/cc-pVTZ 

H2O_H2O_2059

0 1
O             -0.000000         -0.009833          0.000000
H             -0.799571         -0.580965          0.000000
H              0.799571         -0.580965          0.000000
O             -2.997018         -2.145037          0.000000
H             -3.979141         -2.175697          0.000000
H             -2.649502         -3.064133          0.000000

