%NProcShared=4 
%Mem=4GB  
%Chk=H2O_H2O_4380.chk 

#p CCSD(T)/cc-pVTZ 

H2O_H2O_4380

0 1
O             -0.000000         -0.009833          0.000000
H             -0.799571         -0.580965          0.000000
H              0.799571         -0.580965          0.000000
O             -4.504003         -3.224253          0.000000
H             -5.444725         -3.508061          0.000000
H             -3.930449         -4.022088          0.000000

