%NProcShared=4 
%Mem=4GB  
%Chk=H2O_H2O_2588.chk 

#p CCSD(T)/cc-pVTZ 

H2O_H2O_2588

0 1
O             -0.000000         -0.009833          0.000000
H             -0.799571         -0.580965          0.000000
H              0.799571         -0.580965          0.000000
O             -3.339755         -2.386781          0.000000
H             -4.296348         -2.162205          0.000000
H             -3.241960         -3.364504          0.000000

