%NProcShared=4 
%Mem=4GB  
%Chk=H2O_H2O_2488.chk 

#p CCSD(T)/cc-pVTZ 

H2O_H2O_2488

0 1
O             -0.000000         -0.009833          0.000000
H             -0.799571         -0.580965          0.000000
H              0.799571         -0.580965          0.000000
O             -3.274839         -2.340413          0.000000
H             -4.231433         -2.115836          0.000000
H             -3.177044         -3.318136          0.000000

