%NProcShared=4 
%Mem=4GB  
%Chk=H2O_H2O_2709.chk 

#p CCSD(T)/cc-pVTZ 

H2O_H2O_2709

0 1
O             -0.000000         -0.009833          0.000000
H             -0.799571         -0.580965          0.000000
H              0.799571         -0.580965          0.000000
O             -3.418969         -2.446435          0.000000
H             -4.401092         -2.477096          0.000000
H             -3.071454         -3.365532          0.000000

