%NProcShared=4 
%Mem=4GB  
%Chk=H2O_H2O_915.chk 

#p CCSD(T)/cc-pVTZ 

H2O_H2O_915

0 1
O             -0.000000         -0.009833          0.000000
H             -0.799571         -0.580965          0.000000
H              0.799571         -0.580965          0.000000
O             -2.253201         -1.609079          0.000000
H             -3.172298         -1.261564          0.000000
H             -2.283862         -2.591203          0.000000

