%NProcShared=4 
%Mem=4GB  
%Chk=H2O_H2O_756.chk 

#p CCSD(T)/cc-pVTZ 

H2O_H2O_756

0 1
O             -0.000000         -0.009833          0.000000
H             -0.799571         -0.580965          0.000000
H              0.799571         -0.580965          0.000000
O             -2.151415         -1.543147          0.000000
H             -3.108685         -1.764822          0.000000
H             -1.631270         -2.376787          0.000000

