%NProcShared=4 
%Mem=4GB  
%Chk=H2O_H2O_1188.chk 

#p CCSD(T)/cc-pVTZ 

H2O_H2O_1188

0 1
O             -0.000000         -0.009833          0.000000
H             -0.799571         -0.580965          0.000000
H              0.799571         -0.580965          0.000000
O             -2.430936         -1.737615          0.000000
H             -3.387530         -1.513039          0.000000
H             -2.333142         -2.715338          0.000000

