%NProcShared=4 
%Mem=4GB  
%Chk=H2O_H2O_3200.chk 

#p CCSD(T)/cc-pVTZ 

H2O_H2O_3200

0 1
O             -0.000000         -0.009833          0.000000
H             -0.799571         -0.580965          0.000000
H              0.799571         -0.580965          0.000000
O             -3.738084         -2.679938          0.000000
H             -4.537655         -3.251070          0.000000
H             -2.938513         -3.251070          0.000000

