%NProcShared=4 
%Mem=4GB  
%Chk=H2O_H2O_4179.chk 

#p CCSD(T)/cc-pVTZ 

H2O_H2O_4179

0 1
O             -0.000000         -0.009833          0.000000
H             -0.799571         -0.580965          0.000000
H              0.799571         -0.580965          0.000000
O             -4.373556         -3.131701          0.000000
H             -5.293702         -3.476428          0.000000
H             -3.749049         -3.890317          0.000000

