%NProcShared=4 
%Mem=4GB  
%Chk=H2O_H2O_1643.chk 

#p CCSD(T)/cc-pVTZ 

H2O_H2O_1643

0 1
O             -0.000000         -0.009833          0.000000
H             -0.799571         -0.580965          0.000000
H              0.799571         -0.580965          0.000000
O             -2.724748         -1.943555          0.000000
H             -3.558388         -1.423410          0.000000
H             -2.946422         -2.900825          0.000000

