%NProcShared=4 
%Mem=4GB  
%Chk=H2O_H2O_1532.chk 

#p CCSD(T)/cc-pVTZ 

H2O_H2O_1532

0 1
O             -0.000000         -0.009833          0.000000
H             -0.799571         -0.580965          0.000000
H              0.799571         -0.580965          0.000000
O             -2.655097         -1.902242          0.000000
H             -3.624816         -2.060833          0.000000
H             -2.190588         -2.768116          0.000000

