%NProcShared=4 
%Mem=4GB  
%Chk=H2O_H2O_2623.chk 

#p CCSD(T)/cc-pVTZ 

H2O_H2O_2623

0 1
O             -0.000000         -0.009833          0.000000
H             -0.799571         -0.580965          0.000000
H              0.799571         -0.580965          0.000000
O             -3.358402         -2.392533          0.000000
H             -3.980606         -1.632028          0.000000
H             -3.876017         -3.227747          0.000000

