%NProcShared=4 
%Mem=4GB  
%Chk=H2O_H2O_2778.chk 

#p CCSD(T)/cc-pVTZ 

H2O_H2O_2778

0 1
O             -0.000000         -0.009833          0.000000
H             -0.799571         -0.580965          0.000000
H              0.799571         -0.580965          0.000000
O             -3.464111         -2.482681          0.000000
H             -4.359741         -2.886850          0.000000
H             -2.791325         -3.198827          0.000000

