%NProcShared=4 
%Mem=4GB  
%Chk=H2O_H2O_609.chk 

#p CCSD(T)/cc-pVTZ 

H2O_H2O_609

0 1
O             -0.000000         -0.009833          0.000000
H             -0.799571         -0.580965          0.000000
H              0.799571         -0.580965          0.000000
O             -2.055741         -1.472685          0.000000
H             -3.037865         -1.503346          0.000000
H             -1.708226         -2.391782          0.000000

