%NProcShared=4 
%Mem=4GB  
%Chk=H2O_H2O_2799.chk 

#p CCSD(T)/cc-pVTZ 

H2O_H2O_2799

0 1
O             -0.000000         -0.009833          0.000000
H             -0.799571         -0.580965          0.000000
H              0.799571         -0.580965          0.000000
O             -3.472026         -2.473036          0.000000
H             -4.043158         -1.673465          0.000000
H             -4.043158         -3.272608          0.000000

