%NProcShared=4 
%Mem=4GB  
%Chk=H2O_H2O_465.chk 

#p CCSD(T)/cc-pVTZ 

H2O_H2O_465

0 1
O             -0.000000         -0.009833          0.000000
H             -0.799571         -0.580965          0.000000
H              0.799571         -0.580965          0.000000
O             -1.961081         -1.400419          0.000000
H             -2.880178         -1.052903          0.000000
H             -1.991742         -2.382542          0.000000

