%NProcShared=4 
%Mem=4GB  
%Chk=H2O_H2O_2267.chk 

#p CCSD(T)/cc-pVTZ 

H2O_H2O_2267

0 1
O             -0.000000         -0.009833          0.000000
H             -0.799571         -0.580965          0.000000
H              0.799571         -0.580965          0.000000
O             -3.130205         -2.233948          0.000000
H             -3.996079         -1.769439          0.000000
H             -3.288796         -3.203667          0.000000

