%NProcShared=4 
%Mem=4GB  
%Chk=H2O_H2O_2554.chk 

#p CCSD(T)/cc-pVTZ 

H2O_H2O_2554

0 1
O             -0.000000         -0.009833          0.000000
H             -0.799571         -0.580965          0.000000
H              0.799571         -0.580965          0.000000
O             -3.318678         -2.378204          0.000000
H             -4.238824         -2.722931          0.000000
H             -2.694171         -3.136819          0.000000

