%NProcShared=4 
%Mem=4GB  
%Chk=H2O_H2O_2407.chk 

#p CCSD(T)/cc-pVTZ 

H2O_H2O_2407

0 1
O             -0.000000         -0.009833          0.000000
H             -0.799571         -0.580965          0.000000
H              0.799571         -0.580965          0.000000
O             -3.223108         -2.307971          0.000000
H             -4.192827         -2.466563          0.000000
H             -2.758600         -3.173845          0.000000

