%NProcShared=4 
%Mem=4GB  
%Chk=H2O_H2O_3917.chk 

#p CCSD(T)/cc-pVTZ 

H2O_H2O_3917

0 1
O             -0.000000         -0.009833          0.000000
H             -0.799571         -0.580965          0.000000
H              0.799571         -0.580965          0.000000
O             -4.201312         -2.999037          0.000000
H             -5.067186         -2.534529          0.000000
H             -4.359903         -3.968756          0.000000

