%NProcShared=4 
%Mem=4GB  
%Chk=H2O_H2O_4094.chk 

#p CCSD(T)/cc-pVTZ 

H2O_H2O_4094

0 1
O             -0.000000         -0.009833          0.000000
H             -0.799571         -0.580965          0.000000
H              0.799571         -0.580965          0.000000
O             -4.315406         -3.078995          0.000000
H             -5.113242         -2.505441          0.000000
H             -4.599215         -4.019717          0.000000

