%NProcShared=4 
%Mem=4GB  
%Chk=H2O_H2O_2541.chk 

#p CCSD(T)/cc-pVTZ 

H2O_H2O_2541

0 1
O             -0.000000         -0.009833          0.000000
H             -0.799571         -0.580965          0.000000
H              0.799571         -0.580965          0.000000
O             -3.308419         -2.362030          0.000000
H             -4.202820         -1.955147          0.000000
H             -3.403249         -3.340045          0.000000

