%NProcShared=4 
%Mem=4GB  
%Chk=H2O_H2O_2122.chk 

#p CCSD(T)/cc-pVTZ 

H2O_H2O_2122

0 1
O             -0.000000         -0.009833          0.000000
H             -0.799571         -0.580965          0.000000
H              0.799571         -0.580965          0.000000
O             -3.033761         -2.161328          0.000000
H             -3.704372         -1.443145          0.000000
H             -3.495642         -3.028607          0.000000

