%NProcShared=4 
%Mem=4GB  
%Chk=H2O_H2O_2797.chk 

#p CCSD(T)/cc-pVTZ 

H2O_H2O_2797

0 1
O             -0.000000         -0.009833          0.000000
H             -0.799571         -0.580965          0.000000
H              0.799571         -0.580965          0.000000
O             -3.471942         -2.474320          0.000000
H             -4.142553         -1.756137          0.000000
H             -3.933822         -3.341598          0.000000

