%NProcShared=4 
%Mem=4GB  
%Chk=H2O_H2O_4975.chk 

#p CCSD(T)/cc-pVTZ 

H2O_H2O_4975

0 1
O             -0.000000         -0.009833          0.000000
H             -0.799571         -0.580965          0.000000
H              0.799571         -0.580965          0.000000
O             -4.890336         -3.502989          0.000000
H             -5.689907         -4.074121          0.000000
H             -4.090764         -4.074121          0.000000

