%NProcShared=4 
%Mem=4GB  
%Chk=H2O_H2O_3812.chk 

#p CCSD(T)/cc-pVTZ 

H2O_H2O_3812

0 1
O             -0.000000         -0.009833          0.000000
H             -0.799571         -0.580965          0.000000
H              0.799571         -0.580965          0.000000
O             -4.134531         -2.955272          0.000000
H             -5.103764         -2.793741          0.000000
H             -3.973000         -3.924506          0.000000

