%NProcShared=4 
%Mem=4GB  
%Chk=H2O_H2O_2516.chk 

#p CCSD(T)/cc-pVTZ 

H2O_H2O_2516

0 1
O             -0.000000         -0.009833          0.000000
H             -0.799571         -0.580965          0.000000
H              0.799571         -0.580965          0.000000
O             -3.292191         -2.350438          0.000000
H             -4.186591         -1.943555          0.000000
H             -3.387020         -3.328453          0.000000

