%NProcShared=4 
%Mem=4GB  
%Chk=H2O_H2O_50.chk 

#p CCSD(T)/cc-pVTZ 

H2O_H2O_50

0 1
O             -0.000000         -0.009833          0.000000
H             -0.799571         -0.580965          0.000000
H              0.799571         -0.580965          0.000000
O             -1.693243         -1.219313          0.000000
H             -2.492814         -1.790444          0.000000
H             -0.893671         -1.790444          0.000000

