%NProcShared=4 
%Mem=4GB  
%Chk=H2O_H2O_1538.chk 

#p CCSD(T)/cc-pVTZ 

H2O_H2O_1538

0 1
O             -0.000000         -0.009833          0.000000
H             -0.799571         -0.580965          0.000000
H              0.799571         -0.580965          0.000000
O             -2.658141         -1.899906          0.000000
H             -3.614734         -1.675330          0.000000
H             -2.560346         -2.877630          0.000000

