%NProcShared=4 
%Mem=4GB  
%Chk=H2O_H2O_4545.chk 

#p CCSD(T)/cc-pVTZ 

H2O_H2O_4545

0 1
O             -0.000000         -0.009833          0.000000
H             -0.799571         -0.580965          0.000000
H              0.799571         -0.580965          0.000000
O             -4.607714         -3.287040          0.000000
H             -5.366329         -2.662533          0.000000
H             -4.952441         -4.207186          0.000000

