%NProcShared=4 
%Mem=4GB  
%Chk=H2O_H2O_4671.chk 

#p CCSD(T)/cc-pVTZ 

H2O_H2O_4671

0 1
O             -0.000000         -0.009833          0.000000
H             -0.799571         -0.580965          0.000000
H              0.799571         -0.580965          0.000000
O             -4.689004         -3.344374          0.000000
H             -5.405151         -2.671589          0.000000
H             -5.093173         -4.240005          0.000000

