%NProcShared=4 
%Mem=4GB  
%Chk=H2O_H2O_3509.chk 

#p CCSD(T)/cc-pVTZ 

H2O_H2O_3509

0 1
O             -0.000000         -0.009833          0.000000
H             -0.799571         -0.580965          0.000000
H              0.799571         -0.580965          0.000000
O             -3.938294         -2.817388          0.000000
H             -4.920417         -2.848049          0.000000
H             -3.590778         -3.736485          0.000000

