%NProcShared=4 
%Mem=4GB  
%Chk=H2O_H2O_3368.chk 

#p CCSD(T)/cc-pVTZ 

H2O_H2O_3368

0 1
O             -0.000000         -0.009833          0.000000
H             -0.799571         -0.580965          0.000000
H              0.799571         -0.580965          0.000000
O             -3.844542         -2.743421          0.000000
H             -4.678182         -2.223276          0.000000
H             -4.066216         -3.700692          0.000000

