%NProcShared=4 
%Mem=4GB  
%Chk=H2O_H2O_2584.chk 

#p CCSD(T)/cc-pVTZ 

H2O_H2O_2584

0 1
O             -0.000000         -0.009833          0.000000
H             -0.799571         -0.580965          0.000000
H              0.799571         -0.580965          0.000000
O             -3.337825         -2.388474          0.000000
H             -4.319948         -2.419135          0.000000
H             -2.990309         -3.307571          0.000000

