%NProcShared=4 
%Mem=4GB  
%Chk=H2O_H2O_4165.chk 

#p CCSD(T)/cc-pVTZ 

H2O_H2O_4165

0 1
O             -0.000000         -0.009833          0.000000
H             -0.799571         -0.580965          0.000000
H              0.799571         -0.580965          0.000000
O             -4.362958         -3.116074          0.000000
H             -5.282055         -2.768558          0.000000
H             -4.393619         -4.098197          0.000000

