%NProcShared=4 
%Mem=4GB  
%Chk=H2O_H2O_4020.chk 

#p CCSD(T)/cc-pVTZ 

H2O_H2O_4020

0 1
O             -0.000000         -0.009833          0.000000
H             -0.799571         -0.580965          0.000000
H              0.799571         -0.580965          0.000000
O             -4.266907         -3.043602          0.000000
H             -5.025522         -2.419095          0.000000
H             -4.611634         -3.963749          0.000000

