%NProcShared=4 
%Mem=4GB  
%Chk=H2O_H2O_4418.chk 

#p CCSD(T)/cc-pVTZ 

H2O_H2O_4418

0 1
O             -0.000000         -0.009833          0.000000
H             -0.799571         -0.580965          0.000000
H              0.799571         -0.580965          0.000000
O             -4.526156         -3.230296          0.000000
H             -5.359795         -2.710151          0.000000
H             -4.747830         -4.187567          0.000000

