%NProcShared=4 
%Mem=4GB  
%Chk=H2O_H2O_2348.chk 

#p CCSD(T)/cc-pVTZ 

H2O_H2O_2348

0 1
O             -0.000000         -0.009833          0.000000
H             -0.799571         -0.580965          0.000000
H              0.799571         -0.580965          0.000000
O             -3.179885         -2.265019          0.000000
H             -3.802088         -1.504513          0.000000
H             -3.697499         -3.100232          0.000000

