%NProcShared=4 
%Mem=4GB  
%Chk=H2O_H2O_3573.chk 

#p CCSD(T)/cc-pVTZ 

H2O_H2O_3573

0 1
O             -0.000000         -0.009833          0.000000
H             -0.799571         -0.580965          0.000000
H              0.799571         -0.580965          0.000000
O             -3.975101         -2.833040          0.000000
H             -4.597304         -2.072534          0.000000
H             -4.492715         -3.668253          0.000000

