%NProcShared=4 
%Mem=4GB  
%Chk=H2O_H2O_3570.chk 

#p CCSD(T)/cc-pVTZ 

H2O_H2O_3570

0 1
O             -0.000000         -0.009833          0.000000
H             -0.799571         -0.580965          0.000000
H              0.799571         -0.580965          0.000000
O             -3.974787         -2.834942          0.000000
H             -4.733402         -2.210435          0.000000
H             -4.319514         -3.755088          0.000000

