%NProcShared=4 
%Mem=4GB  
%Chk=H2O_H2O_2975.chk 

#p CCSD(T)/cc-pVTZ 

H2O_H2O_2975

0 1
O             -0.000000         -0.009833          0.000000
H             -0.799571         -0.580965          0.000000
H              0.799571         -0.580965          0.000000
O             -3.592024         -2.575608          0.000000
H             -4.391595         -3.146740          0.000000
H             -2.792453         -3.146740          0.000000

