%NProcShared=4 
%Mem=4GB  
%Chk=H2O_H2O_1885.chk 

#p CCSD(T)/cc-pVTZ 

H2O_H2O_1885

0 1
O             -0.000000         -0.009833          0.000000
H             -0.799571         -0.580965          0.000000
H              0.799571         -0.580965          0.000000
O             -2.883938         -2.063516          0.000000
H             -3.865964         -2.029877          0.000000
H             -2.597279         -3.003374          0.000000

