%NProcShared=4 
%Mem=4GB  
%Chk=H2O_H2O_684.chk 

#p CCSD(T)/cc-pVTZ 

H2O_H2O_684

0 1
O             -0.000000         -0.009833          0.000000
H             -0.799571         -0.580965          0.000000
H              0.799571         -0.580965          0.000000
O             -2.104428         -1.507462          0.000000
H             -3.086551         -1.538123          0.000000
H             -1.756913         -2.426559          0.000000

