%NProcShared=4 
%Mem=4GB  
%Chk=H2O_H2O_4426.chk 

#p CCSD(T)/cc-pVTZ 

H2O_H2O_4426

0 1
O             -0.000000         -0.009833          0.000000
H             -0.799571         -0.580965          0.000000
H              0.799571         -0.580965          0.000000
O             -4.533943         -3.247938          0.000000
H             -5.369156         -3.765552          0.000000
H             -3.773437         -3.870141          0.000000

