%NProcShared=4 
%Mem=4GB  
%Chk=H2O_H2O_3262.chk 

#p CCSD(T)/cc-pVTZ 

H2O_H2O_3262

0 1
O             -0.000000         -0.009833          0.000000
H             -0.799571         -0.580965          0.000000
H              0.799571         -0.580965          0.000000
O             -3.777495         -2.700242          0.000000
H             -4.746729         -2.538711          0.000000
H             -3.615964         -3.669476          0.000000

