%NProcShared=4 
%Mem=4GB  
%Chk=H2O_H2O_2870.chk 

#p CCSD(T)/cc-pVTZ 

H2O_H2O_2870

0 1
O             -0.000000         -0.009833          0.000000
H             -0.799571         -0.580965          0.000000
H              0.799571         -0.580965          0.000000
O             -3.520378         -2.510358          0.000000
H             -4.278993         -1.885851          0.000000
H             -3.865104         -3.430505          0.000000

