%NProcShared=4 
%Mem=4GB  
%Chk=H2O_H2O_3075.chk 

#p CCSD(T)/cc-pVTZ 

H2O_H2O_3075

0 1
O             -0.000000         -0.009833          0.000000
H             -0.799571         -0.580965          0.000000
H              0.799571         -0.580965          0.000000
O             -3.656939         -2.621976          0.000000
H             -4.456511         -3.193108          0.000000
H             -2.857368         -3.193108          0.000000

