%NProcShared=4 
%Mem=4GB  
%Chk=H2O_H2O_4484.chk 

#p CCSD(T)/cc-pVTZ 

H2O_H2O_4484

0 1
O             -0.000000         -0.009833          0.000000
H             -0.799571         -0.580965          0.000000
H              0.799571         -0.580965          0.000000
O             -4.571221         -3.269486          0.000000
H             -5.553344         -3.300147          0.000000
H             -4.223705         -4.188583          0.000000

