%NProcShared=4 
%Mem=4GB  
%Chk=H2O_H2O_2270.chk 

#p CCSD(T)/cc-pVTZ 

H2O_H2O_2270

0 1
O             -0.000000         -0.009833          0.000000
H             -0.799571         -0.580965          0.000000
H              0.799571         -0.580965          0.000000
O             -3.130884         -2.232144          0.000000
H             -3.889499         -1.607637          0.000000
H             -3.475611         -3.152290          0.000000

