%NProcShared=4 
%Mem=4GB  
%Chk=H2O_H2O_1666.chk 

#p CCSD(T)/cc-pVTZ 

H2O_H2O_1666

0 1
O             -0.000000         -0.009833          0.000000
H             -0.799571         -0.580965          0.000000
H              0.799571         -0.580965          0.000000
O             -2.740408         -1.956301          0.000000
H             -3.634808         -1.549418          0.000000
H             -2.835237         -2.934316          0.000000

