%NProcShared=4 
%Mem=4GB  
%Chk=H2O_H2O_2749.chk 

#p CCSD(T)/cc-pVTZ 

H2O_H2O_2749

0 1
O             -0.000000         -0.009833          0.000000
H             -0.799571         -0.580965          0.000000
H              0.799571         -0.580965          0.000000
O             -3.439568         -2.449852          0.000000
H             -4.010700         -1.650280          0.000000
H             -4.010700         -3.249423          0.000000

