%NProcShared=4 
%Mem=4GB  
%Chk=H2O_H2O_4840.chk 

#p CCSD(T)/cc-pVTZ 

H2O_H2O_4840

0 1
O             -0.000000         -0.009833          0.000000
H             -0.799571         -0.580965          0.000000
H              0.799571         -0.580965          0.000000
O             -4.801138         -3.429065          0.000000
H             -5.720235         -3.081549          0.000000
H             -4.831799         -4.411188          0.000000

