%NProcShared=4 
%Mem=4GB  
%Chk=H2O_H2O_1165.chk 

#p CCSD(T)/cc-pVTZ 

H2O_H2O_1165

0 1
O             -0.000000         -0.009833          0.000000
H             -0.799571         -0.580965          0.000000
H              0.799571         -0.580965          0.000000
O             -2.415490         -1.725002          0.000000
H             -3.334587         -1.377487          0.000000
H             -2.446151         -2.707125          0.000000

