%NProcShared=4 
%Mem=4GB  
%Chk=H2O_H2O_4211.chk 

#p CCSD(T)/cc-pVTZ 

H2O_H2O_4211

0 1
O             -0.000000         -0.009833          0.000000
H             -0.799571         -0.580965          0.000000
H              0.799571         -0.580965          0.000000
O             -4.393723         -3.141188          0.000000
H             -5.371446         -3.043394          0.000000
H             -4.169147         -4.097782          0.000000

