%NProcShared=4 
%Mem=4GB  
%Chk=H2O_H2O_2326.chk 

#p CCSD(T)/cc-pVTZ 

H2O_H2O_2326

0 1
O             -0.000000         -0.009833          0.000000
H             -0.799571         -0.580965          0.000000
H              0.799571         -0.580965          0.000000
O             -3.170716         -2.274188          0.000000
H             -4.005929         -2.791802          0.000000
H             -2.410210         -2.896391          0.000000

