%NProcShared=4 
%Mem=4GB  
%Chk=H2O_H2O_1679.chk 

#p CCSD(T)/cc-pVTZ 

H2O_H2O_1679

0 1
O             -0.000000         -0.009833          0.000000
H             -0.799571         -0.580965          0.000000
H              0.799571         -0.580965          0.000000
O             -2.750666         -1.972475          0.000000
H             -3.670813         -2.317202          0.000000
H             -2.126159         -2.731090          0.000000

