%NProcShared=4 
%Mem=4GB  
%Chk=H2O_H2O_4616.chk 

#p CCSD(T)/cc-pVTZ 

H2O_H2O_4616

0 1
O             -0.000000         -0.009833          0.000000
H             -0.799571         -0.580965          0.000000
H              0.799571         -0.580965          0.000000
O             -4.655418         -3.324188          0.000000
H             -5.549819         -2.917305          0.000000
H             -4.750247         -4.302203          0.000000

