%NProcShared=4 
%Mem=4GB  
%Chk=H2O_H2O_2692.chk 

#p CCSD(T)/cc-pVTZ 

H2O_H2O_2692

0 1
O             -0.000000         -0.009833          0.000000
H             -0.799571         -0.580965          0.000000
H              0.799571         -0.580965          0.000000
O             -3.406096         -2.431016          0.000000
H             -4.271970         -1.966508          0.000000
H             -3.564688         -3.400735          0.000000

