%NProcShared=4 
%Mem=4GB  
%Chk=H2O_H2O_4609.chk 

#p CCSD(T)/cc-pVTZ 

H2O_H2O_4609

0 1
O             -0.000000         -0.009833          0.000000
H             -0.799571         -0.580965          0.000000
H              0.799571         -0.580965          0.000000
O             -4.652366         -3.327448          0.000000
H             -5.634489         -3.358108          0.000000
H             -4.304850         -4.246545          0.000000

