%NProcShared=4 
%Mem=4GB  
%Chk=H2O_H2O_2242.chk 

#p CCSD(T)/cc-pVTZ 

H2O_H2O_2242

0 1
O             -0.000000         -0.009833          0.000000
H             -0.799571         -0.580965          0.000000
H              0.799571         -0.580965          0.000000
O             -3.113976         -2.222356          0.000000
H             -3.979850         -1.757847          0.000000
H             -3.272567         -3.192075          0.000000

