%NProcShared=4 
%Mem=4GB  
%Chk=H2O_H2O_3448.chk 

#p CCSD(T)/cc-pVTZ 

H2O_H2O_3448

0 1
O             -0.000000         -0.009833          0.000000
H             -0.799571         -0.580965          0.000000
H              0.799571         -0.580965          0.000000
O             -3.893956         -2.775078          0.000000
H             -4.516160         -2.014572          0.000000
H             -4.411571         -3.610291          0.000000

