%NProcShared=4 
%Mem=4GB  
%Chk=H2O_H2O_1844.chk 

#p CCSD(T)/cc-pVTZ 

H2O_H2O_1844

0 1
O             -0.000000         -0.009833          0.000000
H             -0.799571         -0.580965          0.000000
H              0.799571         -0.580965          0.000000
O             -2.854806         -2.035691          0.000000
H             -3.652642         -1.462137          0.000000
H             -3.138614         -2.976413          0.000000

