%NProcShared=4 
%Mem=4GB  
%Chk=H2O_H2O_4194.chk 

#p CCSD(T)/cc-pVTZ 

H2O_H2O_4194

0 1
O             -0.000000         -0.009833          0.000000
H             -0.799571         -0.580965          0.000000
H              0.799571         -0.580965          0.000000
O             -4.380322         -3.125364          0.000000
H             -5.178158         -2.551810          0.000000
H             -4.664131         -4.066086          0.000000

