%NProcShared=4 
%Mem=4GB  
%Chk=H2O_H2O_4160.chk 

#p CCSD(T)/cc-pVTZ 

H2O_H2O_4160

0 1
O             -0.000000         -0.009833          0.000000
H             -0.799571         -0.580965          0.000000
H              0.799571         -0.580965          0.000000
O             -4.360768         -3.118412          0.000000
H             -5.342794         -3.084773          0.000000
H             -4.074109         -4.058270          0.000000

