%NProcShared=4 
%Mem=4GB  
%Chk=H2O_H2O_1663.chk 

#p CCSD(T)/cc-pVTZ 

H2O_H2O_1663

0 1
O             -0.000000         -0.009833          0.000000
H             -0.799571         -0.580965          0.000000
H              0.799571         -0.580965          0.000000
O             -2.739285         -1.957868          0.000000
H             -3.695879         -1.733292          0.000000
H             -2.641491         -2.935591          0.000000

