%NProcShared=4 
%Mem=4GB  
%Chk=H2O_H2O_2549.chk 

#p CCSD(T)/cc-pVTZ 

H2O_H2O_2549

0 1
O             -0.000000         -0.009833          0.000000
H             -0.799571         -0.580965          0.000000
H              0.799571         -0.580965          0.000000
O             -3.309737         -2.357114          0.000000
H             -3.880869         -1.557542          0.000000
H             -3.880869         -3.156685          0.000000

