%NProcShared=4 
%Mem=4GB  
%Chk=H2O_H2O_1829.chk 

#p CCSD(T)/cc-pVTZ 

H2O_H2O_1829

0 1
O             -0.000000         -0.009833          0.000000
H             -0.799571         -0.580965          0.000000
H              0.799571         -0.580965          0.000000
O             -2.848040         -2.042028          0.000000
H             -3.768186         -2.386755          0.000000
H             -2.223533         -2.800644          0.000000

