%NProcShared=4 
%Mem=4GB  
%Chk=H2O_H2O_786.chk 

#p CCSD(T)/cc-pVTZ 

H2O_H2O_786

0 1
O             -0.000000         -0.009833          0.000000
H             -0.799571         -0.580965          0.000000
H              0.799571         -0.580965          0.000000
O             -2.170364         -1.553048          0.000000
H             -3.148087         -1.455254          0.000000
H             -1.945788         -2.509642          0.000000

