%NProcShared=4 
%Mem=4GB  
%Chk=H2O_H2O_1929.chk 

#p CCSD(T)/cc-pVTZ 

H2O_H2O_1929

0 1
O             -0.000000         -0.009833          0.000000
H             -0.799571         -0.580965          0.000000
H              0.799571         -0.580965          0.000000
O             -2.912955         -2.088397          0.000000
H             -3.833102         -2.433124          0.000000
H             -2.288448         -2.847013          0.000000

