%NProcShared=4 
%Mem=4GB  
%Chk=H2O_H2O_235.chk 

#p CCSD(T)/cc-pVTZ 

H2O_H2O_235

0 1
O             -0.000000         -0.009833          0.000000
H             -0.799571         -0.580965          0.000000
H              0.799571         -0.580965          0.000000
O             -1.812831         -1.298426          0.000000
H             -2.794857         -1.264788          0.000000
H             -1.526172         -2.238284          0.000000

