%NProcShared=4 
%Mem=4GB  
%Chk=H2O_H2O_3554.chk 

#p CCSD(T)/cc-pVTZ 

H2O_H2O_3554

0 1
O             -0.000000         -0.009833          0.000000
H             -0.799571         -0.580965          0.000000
H              0.799571         -0.580965          0.000000
O             -3.967834         -2.841895          0.000000
H             -4.887980         -3.186621          0.000000
H             -3.343327         -3.600510          0.000000

