%NProcShared=4 
%Mem=4GB  
%Chk=H2O_H2O_3506.chk 

#p CCSD(T)/cc-pVTZ 

H2O_H2O_3506

0 1
O             -0.000000         -0.009833          0.000000
H             -0.799571         -0.580965          0.000000
H              0.799571         -0.580965          0.000000
O             -3.936594         -2.818296          0.000000
H             -4.893864         -3.039971          0.000000
H             -3.416449         -3.651936          0.000000

