%NProcShared=4 
%Mem=4GB  
%Chk=H2O_H2O_2935.chk 

#p CCSD(T)/cc-pVTZ 

H2O_H2O_2935

0 1
O             -0.000000         -0.009833          0.000000
H             -0.799571         -0.580965          0.000000
H              0.799571         -0.580965          0.000000
O             -3.565552         -2.550391          0.000000
H             -4.547578         -2.516752          0.000000
H             -3.278893         -3.490249          0.000000

