%NProcShared=4 
%Mem=4GB  
%Chk=H2O_H2O_310.chk 

#p CCSD(T)/cc-pVTZ 

H2O_H2O_310

0 1
O             -0.000000         -0.009833          0.000000
H             -0.799571         -0.580965          0.000000
H              0.799571         -0.580965          0.000000
O             -1.861518         -1.333203          0.000000
H             -2.843544         -1.299564          0.000000
H             -1.574858         -2.273061          0.000000

