%NProcShared=4 
%Mem=4GB  
%Chk=H2O_H2O_1537.chk 

#p CCSD(T)/cc-pVTZ 

H2O_H2O_1537

0 1
O             -0.000000         -0.009833          0.000000
H             -0.799571         -0.580965          0.000000
H              0.799571         -0.580965          0.000000
O             -2.657701         -1.900376          0.000000
H             -3.626934         -1.738845          0.000000
H             -2.496170         -2.869610          0.000000

