%NProcShared=4 
%Mem=4GB  
%Chk=H2O_H2O_4450.chk 

#p CCSD(T)/cc-pVTZ 

H2O_H2O_4450

0 1
O             -0.000000         -0.009833          0.000000
H             -0.799571         -0.580965          0.000000
H              0.799571         -0.580965          0.000000
O             -4.549529         -3.259551          0.000000
H             -5.349100         -3.830683          0.000000
H             -3.749957         -3.830683          0.000000

