%NProcShared=4 
%Mem=4GB  
%Chk=H2O_H2O_3475.chk 

#p CCSD(T)/cc-pVTZ 

H2O_H2O_3475

0 1
O             -0.000000         -0.009833          0.000000
H             -0.799571         -0.580965          0.000000
H              0.799571         -0.580965          0.000000
O             -3.916602         -2.807453          0.000000
H             -4.716173         -3.378585          0.000000
H             -3.117030         -3.378585          0.000000

