%NProcShared=4 
%Mem=4GB  
%Chk=H2O_H2O_4512.chk 

#p CCSD(T)/cc-pVTZ 

H2O_H2O_4512

0 1
O             -0.000000         -0.009833          0.000000
H             -0.799571         -0.580965          0.000000
H              0.799571         -0.580965          0.000000
O             -4.588940         -3.279856          0.000000
H             -5.558173         -3.118324          0.000000
H             -4.427409         -4.249089          0.000000

