%NProcShared=4 
%Mem=4GB  
%Chk=H2O_H2O_2154.chk 

#p CCSD(T)/cc-pVTZ 

H2O_H2O_2154

0 1
O             -0.000000         -0.009833          0.000000
H             -0.799571         -0.580965          0.000000
H              0.799571         -0.580965          0.000000
O             -3.059015         -2.192728          0.000000
H             -3.979162         -2.537455          0.000000
H             -2.434508         -2.951343          0.000000

