%NProcShared=4 
%Mem=4GB  
%Chk=H2O_H2O_2373.chk 

#p CCSD(T)/cc-pVTZ 

H2O_H2O_2373

0 1
O             -0.000000         -0.009833          0.000000
H             -0.799571         -0.580965          0.000000
H              0.799571         -0.580965          0.000000
O             -3.196113         -2.276611          0.000000
H             -3.818317         -1.516105          0.000000
H             -3.713728         -3.111824          0.000000

