%NProcShared=4 
%Mem=4GB  
%Chk=H2O_H2O_3385.chk 

#p CCSD(T)/cc-pVTZ 

H2O_H2O_3385

0 1
O             -0.000000         -0.009833          0.000000
H             -0.799571         -0.580965          0.000000
H              0.799571         -0.580965          0.000000
O             -3.857672         -2.759052          0.000000
H             -4.839698         -2.725413          0.000000
H             -3.571013         -3.698909          0.000000

