%NProcShared=4 
%Mem=4GB  
%Chk=H2O_H2O_1856.chk 

#p CCSD(T)/cc-pVTZ 

H2O_H2O_1856

0 1
O             -0.000000         -0.009833          0.000000
H             -0.799571         -0.580965          0.000000
H              0.799571         -0.580965          0.000000
O             -2.865486         -2.053207          0.000000
H             -3.822757         -2.274882          0.000000
H             -2.345342         -2.886847          0.000000

