%NProcShared=4 
%Mem=4GB  
%Chk=H2O_H2O_1176.chk 

#p CCSD(T)/cc-pVTZ 

H2O_H2O_1176

0 1
O             -0.000000         -0.009833          0.000000
H             -0.799571         -0.580965          0.000000
H              0.799571         -0.580965          0.000000
O             -2.424186         -1.740943          0.000000
H             -3.259400         -2.258558          0.000000
H             -1.663681         -2.363147          0.000000

