%NProcShared=4 
%Mem=4GB  
%Chk=H2O_H2O_3306.chk 

#p CCSD(T)/cc-pVTZ 

H2O_H2O_3306

0 1
O             -0.000000         -0.009833          0.000000
H             -0.799571         -0.580965          0.000000
H              0.799571         -0.580965          0.000000
O             -3.806762         -2.725558          0.000000
H             -4.764033         -2.947233          0.000000
H             -3.286618         -3.559198          0.000000

