%NProcShared=4 
%Mem=4GB  
%Chk=H2O_H2O_875.chk 

#p CCSD(T)/cc-pVTZ 

H2O_H2O_875

0 1
O             -0.000000         -0.009833          0.000000
H             -0.799571         -0.580965          0.000000
H              0.799571         -0.580965          0.000000
O             -2.228796         -1.601857          0.000000
H             -3.028368         -2.172989          0.000000
H             -1.429225         -2.172989          0.000000

