%NProcShared=4 
%Mem=4GB  
%Chk=H2O_H2O_4927.chk 

#p CCSD(T)/cc-pVTZ 

H2O_H2O_4927

0 1
O             -0.000000         -0.009833          0.000000
H             -0.799571         -0.580965          0.000000
H              0.799571         -0.580965          0.000000
O             -4.859161         -3.479720          0.000000
H             -5.726440         -3.941601          0.000000
H             -4.140978         -4.150331          0.000000

