%NProcShared=4 
%Mem=4GB  
%Chk=H2O_H2O_4580.chk 

#p CCSD(T)/cc-pVTZ 

H2O_H2O_4580

0 1
O             -0.000000         -0.009833          0.000000
H             -0.799571         -0.580965          0.000000
H              0.799571         -0.580965          0.000000
O             -4.633834         -3.316991          0.000000
H             -5.574557         -3.600799          0.000000
H             -4.060280         -4.114826          0.000000

