%NProcShared=4 
%Mem=4GB  
%Chk=H2O_H2O_1383.chk 

#p CCSD(T)/cc-pVTZ 

H2O_H2O_1383

0 1
O             -0.000000         -0.009833          0.000000
H             -0.799571         -0.580965          0.000000
H              0.799571         -0.580965          0.000000
O             -2.558291         -1.832385          0.000000
H             -3.536306         -1.927214          0.000000
H             -2.151408         -2.726786          0.000000

