%NProcShared=4 
%Mem=4GB  
%Chk=H2O_H2O_2708.chk 

#p CCSD(T)/cc-pVTZ 

H2O_H2O_2708

0 1
O             -0.000000         -0.009833          0.000000
H             -0.799571         -0.580965          0.000000
H              0.799571         -0.580965          0.000000
O             -3.418423         -2.446775          0.000000
H             -4.396438         -2.541604          0.000000
H             -3.011539         -3.341176          0.000000

