%NProcShared=4 
%Mem=4GB  
%Chk=H2O_H2O_256.chk 

#p CCSD(T)/cc-pVTZ 

H2O_H2O_256

0 1
O             -0.000000         -0.009833          0.000000
H             -0.799571         -0.580965          0.000000
H              0.799571         -0.580965          0.000000
O             -1.826837         -1.311302          0.000000
H             -2.784107         -1.532977          0.000000
H             -1.306692         -2.144942          0.000000

