%NProcShared=4 
%Mem=4GB  
%Chk=H2O_H2O_4296.chk 

#p CCSD(T)/cc-pVTZ 

H2O_H2O_4296

0 1
O             -0.000000         -0.009833          0.000000
H             -0.799571         -0.580965          0.000000
H              0.799571         -0.580965          0.000000
O             -4.445571         -3.170490          0.000000
H             -5.161717         -2.497705          0.000000
H             -4.849740         -4.066121          0.000000

