%NProcShared=4 
%Mem=4GB  
%Chk=H2O_H2O_1591.chk 

#p CCSD(T)/cc-pVTZ 

H2O_H2O_1591

0 1
O             -0.000000         -0.009833          0.000000
H             -0.799571         -0.580965          0.000000
H              0.799571         -0.580965          0.000000
O             -2.691721         -1.921524          0.000000
H             -3.586122         -1.514641          0.000000
H             -2.786551         -2.899539          0.000000

