%NProcShared=4 
%Mem=4GB  
%Chk=H2O_H2O_2854.chk 

#p CCSD(T)/cc-pVTZ 

H2O_H2O_2854

0 1
O             -0.000000         -0.009833          0.000000
H             -0.799571         -0.580965          0.000000
H              0.799571         -0.580965          0.000000
O             -3.513424         -2.517311          0.000000
H             -4.433571         -2.862038          0.000000
H             -2.888918         -3.275927          0.000000

