%NProcShared=4 
%Mem=4GB  
%Chk=H2O_H2O_2192.chk 

#p CCSD(T)/cc-pVTZ 

H2O_H2O_2192

0 1
O             -0.000000         -0.009833          0.000000
H             -0.799571         -0.580965          0.000000
H              0.799571         -0.580965          0.000000
O             -3.081518         -2.199171          0.000000
H             -3.947392         -1.734662          0.000000
H             -3.240109         -3.168890          0.000000

