%NProcShared=4 
%Mem=4GB  
%Chk=H2O_H2O_3588.chk 

#p CCSD(T)/cc-pVTZ 

H2O_H2O_3588

0 1
O             -0.000000         -0.009833          0.000000
H             -0.799571         -0.580965          0.000000
H              0.799571         -0.580965          0.000000
O             -3.988910         -2.850472          0.000000
H             -4.945504         -2.625896          0.000000
H             -3.891116         -3.828195          0.000000

