%NProcShared=4 
%Mem=4GB  
%Chk=H2O_H2O_2502.chk 

#p CCSD(T)/cc-pVTZ 

H2O_H2O_2502

0 1
O             -0.000000         -0.009833          0.000000
H             -0.799571         -0.580965          0.000000
H              0.799571         -0.580965          0.000000
O             -3.284958         -2.355270          0.000000
H             -4.152237         -2.817151          0.000000
H             -2.566775         -3.025881          0.000000

