%NProcShared=4 
%Mem=4GB  
%Chk=H2O_H2O_1038.chk 

#p CCSD(T)/cc-pVTZ 

H2O_H2O_1038

0 1
O             -0.000000         -0.009833          0.000000
H             -0.799571         -0.580965          0.000000
H              0.799571         -0.580965          0.000000
O             -2.333563         -1.668061          0.000000
H             -3.290157         -1.443485          0.000000
H             -2.235769         -2.645784          0.000000

