%NProcShared=4 
%Mem=4GB  
%Chk=H2O_H2O_4676.chk 

#p CCSD(T)/cc-pVTZ 

H2O_H2O_4676

0 1
O             -0.000000         -0.009833          0.000000
H             -0.799571         -0.580965          0.000000
H              0.799571         -0.580965          0.000000
O             -4.696232         -3.363860          0.000000
H             -5.531445         -3.881475          0.000000
H             -3.935726         -3.986064          0.000000

