%NProcShared=4 
%Mem=4GB  
%Chk=H2O_H2O_3688.chk 

#p CCSD(T)/cc-pVTZ 

H2O_H2O_3688

0 1
O             -0.000000         -0.009833          0.000000
H             -0.799571         -0.580965          0.000000
H              0.799571         -0.580965          0.000000
O             -4.053826         -2.896841          0.000000
H             -5.010420         -2.672265          0.000000
H             -3.956032         -3.874564          0.000000

