%NProcShared=4 
%Mem=4GB  
%Chk=H2O_H2O_2466.chk 

#p CCSD(T)/cc-pVTZ 

H2O_H2O_2466

0 1
O             -0.000000         -0.009833          0.000000
H             -0.799571         -0.580965          0.000000
H              0.799571         -0.580965          0.000000
O             -3.259733         -2.327253          0.000000
H             -4.154133         -1.920370          0.000000
H             -3.354562         -3.305268          0.000000

