%NProcShared=4 
%Mem=4GB  
%Chk=H2O_H2O_4706.chk 

#p CCSD(T)/cc-pVTZ 

H2O_H2O_4706

0 1
O             -0.000000         -0.009833          0.000000
H             -0.799571         -0.580965          0.000000
H              0.799571         -0.580965          0.000000
O             -4.715581         -3.374725          0.000000
H             -5.672851         -3.596400          0.000000
H             -4.195436         -4.208365          0.000000

