%NProcShared=4 
%Mem=4GB  
%Chk=H2O_H2O_4524.chk 

#p CCSD(T)/cc-pVTZ 

H2O_H2O_4524

0 1
O             -0.000000         -0.009833          0.000000
H             -0.799571         -0.580965          0.000000
H              0.799571         -0.580965          0.000000
O             -4.591820         -3.272902          0.000000
H             -5.162952         -2.473331          0.000000
H             -5.162952         -4.072474          0.000000

