%NProcShared=4 
%Mem=4GB  
%Chk=H2O_H2O_969.chk 

#p CCSD(T)/cc-pVTZ 

H2O_H2O_969

0 1
O             -0.000000         -0.009833          0.000000
H             -0.799571         -0.580965          0.000000
H              0.799571         -0.580965          0.000000
O             -2.286794         -1.629962          0.000000
H             -3.084630         -1.056408          0.000000
H             -2.570603         -2.570684          0.000000

