%NProcShared=4 
%Mem=4GB  
%Chk=H2O_H2O_994.chk 

#p CCSD(T)/cc-pVTZ 

H2O_H2O_994

0 1
O             -0.000000         -0.009833          0.000000
H             -0.799571         -0.580965          0.000000
H              0.799571         -0.580965          0.000000
O             -2.303023         -1.641554          0.000000
H             -3.100859         -1.068000          0.000000
H             -2.586832         -2.582277          0.000000

