%NProcShared=4 
%Mem=4GB  
%Chk=H2O_H2O_3343.chk 

#p CCSD(T)/cc-pVTZ 

H2O_H2O_3343

0 1
O             -0.000000         -0.009833          0.000000
H             -0.799571         -0.580965          0.000000
H              0.799571         -0.580965          0.000000
O             -3.828313         -2.731829          0.000000
H             -4.661953         -2.211684          0.000000
H             -4.049987         -3.689099          0.000000

