%NProcShared=4 
%Mem=4GB  
%Chk=H2O_H2O_4237.chk 

#p CCSD(T)/cc-pVTZ 

H2O_H2O_4237

0 1
O             -0.000000         -0.009833          0.000000
H             -0.799571         -0.580965          0.000000
H              0.799571         -0.580965          0.000000
O             -4.410422         -3.152341          0.000000
H             -5.379656         -2.990810          0.000000
H             -4.248891         -4.121574          0.000000

