%NProcShared=4 
%Mem=4GB  
%Chk=H2O_H2O_443.chk 

#p CCSD(T)/cc-pVTZ 

H2O_H2O_443

0 1
O             -0.000000         -0.009833          0.000000
H             -0.799571         -0.580965          0.000000
H              0.799571         -0.580965          0.000000
O             -1.945761         -1.387126          0.000000
H             -2.779401         -0.866981          0.000000
H             -2.167435         -2.344397          0.000000

