%NProcShared=4 
%Mem=4GB  
%Chk=H2O_H2O_3110.chk 

#p CCSD(T)/cc-pVTZ 

H2O_H2O_3110

0 1
O             -0.000000         -0.009833          0.000000
H             -0.799571         -0.580965          0.000000
H              0.799571         -0.580965          0.000000
O             -3.679154         -2.631537          0.000000
H             -4.661180         -2.597898          0.000000
H             -3.392495         -3.571395          0.000000

