%NProcShared=4 
%Mem=4GB  
%Chk=H2O_H2O_772.chk 

#p CCSD(T)/cc-pVTZ 

H2O_H2O_772

0 1
O             -0.000000         -0.009833          0.000000
H             -0.799571         -0.580965          0.000000
H              0.799571         -0.580965          0.000000
O             -2.157401         -1.535346          0.000000
H             -2.828012         -0.817163          0.000000
H             -2.619282         -2.402625          0.000000

