%NProcShared=4 
%Mem=4GB  
%Chk=H2O_H2O_1841.chk 

#p CCSD(T)/cc-pVTZ 

H2O_H2O_1841

0 1
O             -0.000000         -0.009833          0.000000
H             -0.799571         -0.580965          0.000000
H              0.799571         -0.580965          0.000000
O             -2.854010         -2.037447          0.000000
H             -3.748411         -1.630563          0.000000
H             -2.948839         -3.015462          0.000000

