%NProcShared=4 
%Mem=4GB  
%Chk=H2O_H2O_2813.chk 

#p CCSD(T)/cc-pVTZ 

H2O_H2O_2813

0 1
O             -0.000000         -0.009833          0.000000
H             -0.799571         -0.580965          0.000000
H              0.799571         -0.580965          0.000000
O             -3.485815         -2.491112          0.000000
H             -4.442408         -2.266536          0.000000
H             -3.388020         -3.468835          0.000000

