%NProcShared=4 
%Mem=4GB  
%Chk=H2O_H2O_909.chk 

#p CCSD(T)/cc-pVTZ 

H2O_H2O_909

0 1
O             -0.000000         -0.009833          0.000000
H             -0.799571         -0.580965          0.000000
H              0.799571         -0.580965          0.000000
O             -2.250488         -1.611792          0.000000
H             -3.232612         -1.642453          0.000000
H             -1.902973         -2.530889          0.000000

