%NProcShared=4 
%Mem=4GB  
%Chk=H2O_H2O_859.chk 

#p CCSD(T)/cc-pVTZ 

H2O_H2O_859

0 1
O             -0.000000         -0.009833          0.000000
H             -0.799571         -0.580965          0.000000
H              0.799571         -0.580965          0.000000
O             -2.218031         -1.588608          0.000000
H             -3.200154         -1.619269          0.000000
H             -1.870515         -2.507705          0.000000

