%NProcShared=4 
%Mem=4GB  
%Chk=H2O_H2O_3313.chk 

#p CCSD(T)/cc-pVTZ 

H2O_H2O_3313

0 1
O             -0.000000         -0.009833          0.000000
H             -0.799571         -0.580965          0.000000
H              0.799571         -0.580965          0.000000
O             -3.810392         -2.722957          0.000000
H             -4.766986         -2.498381          0.000000
H             -3.712598         -3.700680          0.000000

