%NProcShared=4 
%Mem=4GB  
%Chk=H2O_H2O_1986.chk 

#p CCSD(T)/cc-pVTZ 

H2O_H2O_1986

0 1
O             -0.000000         -0.009833          0.000000
H             -0.799571         -0.580965          0.000000
H              0.799571         -0.580965          0.000000
O             -2.949351         -2.109477          0.000000
H             -3.927074         -2.011682          0.000000
H             -2.724775         -3.066070          0.000000

