%NProcShared=4 
%Mem=4GB  
%Chk=H2O_H2O_183.chk 

#p CCSD(T)/cc-pVTZ 

H2O_H2O_183

0 1
O             -0.000000         -0.009833          0.000000
H             -0.799571         -0.580965          0.000000
H              0.799571         -0.580965          0.000000
O             -1.779304         -1.275957          0.000000
H             -2.757319         -1.370786          0.000000
H             -1.372421         -2.170357          0.000000

