%NProcShared=4 
%Mem=4GB  
%Chk=H2O_H2O_3553.chk 

#p CCSD(T)/cc-pVTZ 

H2O_H2O_3553

0 1
O             -0.000000         -0.009833          0.000000
H             -0.799571         -0.580965          0.000000
H              0.799571         -0.580965          0.000000
O             -3.967207         -2.842041          0.000000
H             -4.862837         -3.246210          0.000000
H             -3.294421         -3.558187          0.000000

