%NProcShared=4 
%Mem=4GB  
%Chk=H2O_H2O_3077.chk 

#p CCSD(T)/cc-pVTZ 

H2O_H2O_3077

0 1
O             -0.000000         -0.009833          0.000000
H             -0.799571         -0.580965          0.000000
H              0.799571         -0.580965          0.000000
O             -3.658223         -2.621892          0.000000
H             -4.525502         -3.083773          0.000000
H             -2.940040         -3.292503          0.000000

