%NProcShared=4 
%Mem=4GB  
%Chk=H2O_H2O_404.chk 

#p CCSD(T)/cc-pVTZ 

H2O_H2O_404

0 1
O             -0.000000         -0.009833          0.000000
H             -0.799571         -0.580965          0.000000
H              0.799571         -0.580965          0.000000
O             -1.922992         -1.381269          0.000000
H             -2.843139         -1.725996          0.000000
H             -1.298485         -2.139885          0.000000

