%NProcShared=4 
%Mem=4GB  
%Chk=H2O_H2O_4389.chk 

#p CCSD(T)/cc-pVTZ 

H2O_H2O_4389

0 1
O             -0.000000         -0.009833          0.000000
H             -0.799571         -0.580965          0.000000
H              0.799571         -0.580965          0.000000
O             -4.508643         -3.220927          0.000000
H             -5.448501         -2.934268          0.000000
H             -4.475004         -4.202953          0.000000

