%NProcShared=4 
%Mem=4GB  
%Chk=H2O_H2O_4608.chk 

#p CCSD(T)/cc-pVTZ 

H2O_H2O_4608

0 1
O             -0.000000         -0.009833          0.000000
H             -0.799571         -0.580965          0.000000
H              0.799571         -0.580965          0.000000
O             -4.651819         -3.327787          0.000000
H             -5.629834         -3.422616          0.000000
H             -4.244936         -4.222188          0.000000

