%NProcShared=4 
%Mem=4GB  
%Chk=H2O_H2O_4049.chk 

#p CCSD(T)/cc-pVTZ 

H2O_H2O_4049

0 1
O             -0.000000         -0.009833          0.000000
H             -0.799571         -0.580965          0.000000
H              0.799571         -0.580965          0.000000
O             -4.283471         -3.052650          0.000000
H             -4.854603         -2.253078          0.000000
H             -4.854603         -3.852221          0.000000

