%NProcShared=4 
%Mem=4GB  
%Chk=H2O_H2O_19.chk 

#p CCSD(T)/cc-pVTZ 

H2O_H2O_19

0 1
O             -0.000000         -0.009833          0.000000
H             -0.799571         -0.580965          0.000000
H              0.799571         -0.580965          0.000000
O             -1.670096         -1.189456          0.000000
H             -2.467932         -0.615902          0.000000
H             -1.953905         -2.130178          0.000000

