%NProcShared=4 
%Mem=4GB  
%Chk=H2O_H2O_2381.chk 

#p CCSD(T)/cc-pVTZ 

H2O_H2O_2381

0 1
O             -0.000000         -0.009833          0.000000
H             -0.799571         -0.580965          0.000000
H              0.799571         -0.580965          0.000000
O             -3.206293         -2.296645          0.000000
H             -4.163564         -2.518319          0.000000
H             -2.686148         -3.130284          0.000000

