%NProcShared=4 
%Mem=4GB  
%Chk=H2O_H2O_2167.chk 

#p CCSD(T)/cc-pVTZ 

H2O_H2O_2167

0 1
O             -0.000000         -0.009833          0.000000
H             -0.799571         -0.580965          0.000000
H              0.799571         -0.580965          0.000000
O             -3.065289         -2.187579          0.000000
H             -3.931163         -1.723070          0.000000
H             -3.223881         -3.157298          0.000000

