%NProcShared=4 
%Mem=4GB  
%Chk=H2O_H2O_2210.chk 

#p CCSD(T)/cc-pVTZ 

H2O_H2O_2210

0 1
O             -0.000000         -0.009833          0.000000
H             -0.799571         -0.580965          0.000000
H              0.799571         -0.580965          0.000000
O             -3.094914         -2.214215          0.000000
H             -4.076940         -2.180577          0.000000
H             -2.808254         -3.154073          0.000000

