%NProcShared=4 
%Mem=4GB  
%Chk=H2O_H2O_2172.chk 

#p CCSD(T)/cc-pVTZ 

H2O_H2O_2172

0 1
O             -0.000000         -0.009833          0.000000
H             -0.799571         -0.580965          0.000000
H              0.799571         -0.580965          0.000000
O             -3.066219         -2.184513          0.000000
H             -3.736830         -1.466330          0.000000
H             -3.528100         -3.051792          0.000000

