%NProcShared=4 
%Mem=4GB  
%Chk=H2O_H2O_3591.chk 

#p CCSD(T)/cc-pVTZ 

H2O_H2O_3591

0 1
O             -0.000000         -0.009833          0.000000
H             -0.799571         -0.580965          0.000000
H              0.799571         -0.580965          0.000000
O             -3.990033         -2.848905          0.000000
H             -4.884434         -2.442022          0.000000
H             -4.084862         -3.826920          0.000000

