%NProcShared=4 
%Mem=4GB  
%Chk=H2O_H2O_3344.chk 

#p CCSD(T)/cc-pVTZ 

H2O_H2O_3344

0 1
O             -0.000000         -0.009833          0.000000
H             -0.799571         -0.580965          0.000000
H              0.799571         -0.580965          0.000000
O             -3.828540         -2.731227          0.000000
H             -4.626376         -2.157673          0.000000
H             -4.112348         -3.671949          0.000000

