%NProcShared=4 
%Mem=4GB  
%Chk=H2O_H2O_4543.chk 

#p CCSD(T)/cc-pVTZ 

H2O_H2O_4543

0 1
O             -0.000000         -0.009833          0.000000
H             -0.799571         -0.580965          0.000000
H              0.799571         -0.580965          0.000000
O             -4.607300         -3.288258          0.000000
H             -5.440940         -2.768113          0.000000
H             -4.828975         -4.245528          0.000000

