%NProcShared=4 
%Mem=4GB  
%Chk=H2O_H2O_1378.chk 

#p CCSD(T)/cc-pVTZ 

H2O_H2O_1378

0 1
O             -0.000000         -0.009833          0.000000
H             -0.799571         -0.580965          0.000000
H              0.799571         -0.580965          0.000000
O             -2.555293         -1.833514          0.000000
H             -3.450923         -2.237683          0.000000
H             -1.882507         -2.549660          0.000000

