%NProcShared=4 
%Mem=4GB  
%Chk=H2O_H2O_2103.chk 

#p CCSD(T)/cc-pVTZ 

H2O_H2O_2103

0 1
O             -0.000000         -0.009833          0.000000
H             -0.799571         -0.580965          0.000000
H              0.799571         -0.580965          0.000000
O             -3.025931         -2.169689          0.000000
H             -3.921561         -2.573858          0.000000
H             -2.353145         -2.885836          0.000000

