%NProcShared=4 
%Mem=4GB  
%Chk=H2O_H2O_4823.chk 

#p CCSD(T)/cc-pVTZ 

H2O_H2O_4823

0 1
O             -0.000000         -0.009833          0.000000
H             -0.799571         -0.580965          0.000000
H              0.799571         -0.580965          0.000000
O             -4.786546         -3.412653          0.000000
H             -5.408749         -2.652147          0.000000
H             -5.304160         -4.247866          0.000000

