%NProcShared=4 
%Mem=4GB  
%Chk=H2O_H2O_1785.chk 

#p CCSD(T)/cc-pVTZ 

H2O_H2O_1785

0 1
O             -0.000000         -0.009833          0.000000
H             -0.799571         -0.580965          0.000000
H              0.799571         -0.580965          0.000000
O             -2.819023         -2.017147          0.000000
H             -3.801048         -1.983508          0.000000
H             -2.532363         -2.957004          0.000000

