%NProcShared=4 
%Mem=4GB  
%Chk=H2O_H2O_3181.chk 

#p CCSD(T)/cc-pVTZ 

H2O_H2O_3181

0 1
O             -0.000000         -0.009833          0.000000
H             -0.799571         -0.580965          0.000000
H              0.799571         -0.580965          0.000000
O             -3.725618         -2.667597          0.000000
H             -4.682888         -2.889272          0.000000
H             -3.205473         -3.501237          0.000000

