%NProcShared=4 
%Mem=4GB  
%Chk=H2O_H2O_3185.chk 

#p CCSD(T)/cc-pVTZ 

H2O_H2O_3185

0 1
O             -0.000000         -0.009833          0.000000
H             -0.799571         -0.580965          0.000000
H              0.799571         -0.580965          0.000000
O             -3.727841         -2.666314          0.000000
H             -4.709867         -2.632675          0.000000
H             -3.441181         -3.606171          0.000000

