%NProcShared=4 
%Mem=4GB  
%Chk=H2O_H2O_4596.chk 

#p CCSD(T)/cc-pVTZ 

H2O_H2O_4596

0 1
O             -0.000000         -0.009833          0.000000
H             -0.799571         -0.580965          0.000000
H              0.799571         -0.580965          0.000000
O             -4.640318         -3.309598          0.000000
H             -5.356464         -2.636812          0.000000
H             -5.044487         -4.205228          0.000000

