%NProcShared=4 
%Mem=4GB  
%Chk=H2O_H2O_997.chk 

#p CCSD(T)/cc-pVTZ 

H2O_H2O_997

0 1
O             -0.000000         -0.009833          0.000000
H             -0.799571         -0.580965          0.000000
H              0.799571         -0.580965          0.000000
O             -2.303461         -1.639677          0.000000
H             -2.974072         -0.921493          0.000000
H             -2.765342         -2.506955          0.000000

