%NProcShared=4 
%Mem=4GB  
%Chk=H2O_H2O_4109.chk 

#p CCSD(T)/cc-pVTZ 

H2O_H2O_4109

0 1
O             -0.000000         -0.009833          0.000000
H             -0.799571         -0.580965          0.000000
H              0.799571         -0.580965          0.000000
O             -4.327787         -3.095602          0.000000
H             -5.309910         -3.126263          0.000000
H             -3.980272         -4.014699          0.000000

