%NProcShared=4 
%Mem=4GB  
%Chk=H2O_H2O_146.chk 

#p CCSD(T)/cc-pVTZ 

H2O_H2O_146

0 1
O             -0.000000         -0.009833          0.000000
H             -0.799571         -0.580965          0.000000
H              0.799571         -0.580965          0.000000
O             -1.751574         -1.246174          0.000000
H             -2.467720         -0.573389          0.000000
H             -2.155743         -2.141805          0.000000

