%NProcShared=4 
%Mem=4GB  
%Chk=H2O_H2O_1466.chk 

#p CCSD(T)/cc-pVTZ 

H2O_H2O_1466

0 1
O             -0.000000         -0.009833          0.000000
H             -0.799571         -0.580965          0.000000
H              0.799571         -0.580965          0.000000
O             -2.610577         -1.863563          0.000000
H             -3.504977         -1.456680          0.000000
H             -2.705406         -2.841578          0.000000

