%NProcShared=4 
%Mem=4GB  
%Chk=H2O_H2O_1651.chk 

#p CCSD(T)/cc-pVTZ 

H2O_H2O_1651

0 1
O             -0.000000         -0.009833          0.000000
H             -0.799571         -0.580965          0.000000
H              0.799571         -0.580965          0.000000
O             -2.732535         -1.961196          0.000000
H             -3.567749         -2.478811          0.000000
H             -1.972030         -2.583400          0.000000

