%NProcShared=4 
%Mem=4GB  
%Chk=H2O_H2O_2718.chk 

#p CCSD(T)/cc-pVTZ 

H2O_H2O_2718

0 1
O             -0.000000         -0.009833          0.000000
H             -0.799571         -0.580965          0.000000
H              0.799571         -0.580965          0.000000
O             -3.422591         -2.442022          0.000000
H             -4.256231         -1.921878          0.000000
H             -3.644265         -3.399293          0.000000

