%NProcShared=4 
%Mem=4GB  
%Chk=H2O_H2O_1695.chk 

#p CCSD(T)/cc-pVTZ 

H2O_H2O_1695

0 1
O             -0.000000         -0.009833          0.000000
H             -0.799571         -0.580965          0.000000
H              0.799571         -0.580965          0.000000
O             -2.757619         -1.965522          0.000000
H             -3.516235         -1.341015          0.000000
H             -3.102346         -2.885668          0.000000

