%NProcShared=4 
%Mem=4GB  
%Chk=H2O_H2O_3684.chk 

#p CCSD(T)/cc-pVTZ 

H2O_H2O_3684

0 1
O             -0.000000         -0.009833          0.000000
H             -0.799571         -0.580965          0.000000
H              0.799571         -0.580965          0.000000
O             -4.051896         -2.898534          0.000000
H             -5.034019         -2.929195          0.000000
H             -3.704381         -3.817631          0.000000

