%NProcShared=4 
%Mem=4GB  
%Chk=H2O_H2O_1674.chk 

#p CCSD(T)/cc-pVTZ 

H2O_H2O_1674

0 1
O             -0.000000         -0.009833          0.000000
H             -0.799571         -0.580965          0.000000
H              0.799571         -0.580965          0.000000
O             -2.741725         -1.951384          0.000000
H             -3.312857         -1.151813          0.000000
H             -3.312857         -2.750956          0.000000

