%NProcShared=4 
%Mem=4GB  
%Chk=H2O_H2O_2719.chk 

#p CCSD(T)/cc-pVTZ 

H2O_H2O_2719

0 1
O             -0.000000         -0.009833          0.000000
H             -0.799571         -0.580965          0.000000
H              0.799571         -0.580965          0.000000
O             -3.422817         -2.441420          0.000000
H             -4.220653         -1.867866          0.000000
H             -3.706626         -3.382143          0.000000

