%NProcShared=4 
%Mem=4GB  
%Chk=H2O_H2O_4536.chk 

#p CCSD(T)/cc-pVTZ 

H2O_H2O_4536

0 1
O             -0.000000         -0.009833          0.000000
H             -0.799571         -0.580965          0.000000
H              0.799571         -0.580965          0.000000
O             -4.604699         -3.291888          0.000000
H             -5.582422         -3.194094          0.000000
H             -4.380123         -4.248482          0.000000

