%NProcShared=4 
%Mem=4GB  
%Chk=H2O_H2O_3593.chk 

#p CCSD(T)/cc-pVTZ 

H2O_H2O_3593

0 1
O             -0.000000         -0.009833          0.000000
H             -0.799571         -0.580965          0.000000
H              0.799571         -0.580965          0.000000
O             -3.990602         -2.847752          0.000000
H             -4.824242         -2.327607          0.000000
H             -4.212276         -3.805022          0.000000

