%NProcShared=4 
%Mem=4GB  
%Chk=H2O_H2O_4643.chk 

#p CCSD(T)/cc-pVTZ 

H2O_H2O_4643

0 1
O             -0.000000         -0.009833          0.000000
H             -0.799571         -0.580965          0.000000
H              0.799571         -0.580965          0.000000
O             -4.672216         -3.334627          0.000000
H             -5.505855         -2.814482          0.000000
H             -4.893890         -4.291897          0.000000

