%NProcShared=4 
%Mem=4GB  
%Chk=H2O_H2O_3981.chk 

#p CCSD(T)/cc-pVTZ 

H2O_H2O_3981

0 1
O             -0.000000         -0.009833          0.000000
H             -0.799571         -0.580965          0.000000
H              0.799571         -0.580965          0.000000
O             -4.244943         -3.038549          0.000000
H             -5.202213         -3.260224          0.000000
H             -3.724798         -3.872189          0.000000

