%NProcShared=4 
%Mem=4GB  
%Chk=H2O_H2O_4004.chk 

#p CCSD(T)/cc-pVTZ 

H2O_H2O_4004

0 1
O             -0.000000         -0.009833          0.000000
H             -0.799571         -0.580965          0.000000
H              0.799571         -0.580965          0.000000
O             -4.259954         -3.050555          0.000000
H             -5.180100         -3.395282          0.000000
H             -3.635447         -3.809171          0.000000

