%NProcShared=4 
%Mem=4GB  
%Chk=H2O_H2O_3707.chk 

#p CCSD(T)/cc-pVTZ 

H2O_H2O_3707

0 1
O             -0.000000         -0.009833          0.000000
H             -0.799571         -0.580965          0.000000
H              0.799571         -0.580965          0.000000
O             -4.067011         -2.910769          0.000000
H             -5.036730         -3.069360          0.000000
H             -3.602503         -3.776643          0.000000

