%NProcShared=4 
%Mem=4GB  
%Chk=H2O_H2O_2512.chk 

#p CCSD(T)/cc-pVTZ 

H2O_H2O_2512

0 1
O             -0.000000         -0.009833          0.000000
H             -0.799571         -0.580965          0.000000
H              0.799571         -0.580965          0.000000
O             -3.290628         -2.352475          0.000000
H             -4.259861         -2.190943          0.000000
H             -3.129097         -3.321708          0.000000

