%NProcShared=4 
%Mem=4GB  
%Chk=H2O_H2O_4177.chk 

#p CCSD(T)/cc-pVTZ 

H2O_H2O_4177

0 1
O             -0.000000         -0.009833          0.000000
H             -0.799571         -0.580965          0.000000
H              0.799571         -0.580965          0.000000
O             -4.372294         -3.131952          0.000000
H             -5.239573         -3.593833          0.000000
H             -3.654111         -3.802563          0.000000

