%NProcShared=4 
%Mem=4GB  
%Chk=H2O_H2O_3307.chk 

#p CCSD(T)/cc-pVTZ 

H2O_H2O_3307

0 1
O             -0.000000         -0.009833          0.000000
H             -0.799571         -0.580965          0.000000
H              0.799571         -0.580965          0.000000
O             -3.807349         -2.725293          0.000000
H             -4.777068         -2.883884          0.000000
H             -3.342840         -3.591167          0.000000

