%NProcShared=4 
%Mem=4GB  
%Chk=H2O_H2O_64.chk 

#p CCSD(T)/cc-pVTZ 

H2O_H2O_64

0 1
O             -0.000000         -0.009833          0.000000
H             -0.799571         -0.580965          0.000000
H              0.799571         -0.580965          0.000000
O             -1.701044         -1.215465          0.000000
H             -2.640902         -0.928806          0.000000
H             -1.667405         -2.197491          0.000000

