%NProcShared=4 
%Mem=4GB  
%Chk=H2O_H2O_2630.chk 

#p CCSD(T)/cc-pVTZ 

H2O_H2O_2630

0 1
O             -0.000000         -0.009833          0.000000
H             -0.799571         -0.580965          0.000000
H              0.799571         -0.580965          0.000000
O             -3.367980         -2.412794          0.000000
H             -4.308703         -2.696602          0.000000
H             -2.794426         -3.210630          0.000000

