%NProcShared=4 
%Mem=4GB  
%Chk=H2O_H2O_1161.chk 

#p CCSD(T)/cc-pVTZ 

H2O_H2O_1161

0 1
O             -0.000000         -0.009833          0.000000
H             -0.799571         -0.580965          0.000000
H              0.799571         -0.580965          0.000000
O             -2.413798         -1.726932          0.000000
H             -3.391521         -1.629138          0.000000
H             -2.189222         -2.683526          0.000000

