%NProcShared=4 
%Mem=4GB  
%Chk=H2O_H2O_4102.chk 

#p CCSD(T)/cc-pVTZ 

H2O_H2O_4102

0 1
O             -0.000000         -0.009833          0.000000
H             -0.799571         -0.580965          0.000000
H              0.799571         -0.580965          0.000000
O             -4.323608         -3.097175          0.000000
H             -5.190886         -3.559056          0.000000
H             -3.605424         -3.767786          0.000000

