%NProcShared=4 
%Mem=4GB  
%Chk=H2O_H2O_2831.chk 

#p CCSD(T)/cc-pVTZ 

H2O_H2O_2831

0 1
O             -0.000000         -0.009833          0.000000
H             -0.799571         -0.580965          0.000000
H              0.799571         -0.580965          0.000000
O             -3.498414         -2.505305          0.000000
H             -4.455684         -2.726980          0.000000
H             -2.978269         -3.338945          0.000000

