%NProcShared=4 
%Mem=4GB  
%Chk=H2O_H2O_2292.chk 

#p CCSD(T)/cc-pVTZ 

H2O_H2O_2292

0 1
O             -0.000000         -0.009833          0.000000
H             -0.799571         -0.580965          0.000000
H              0.799571         -0.580965          0.000000
O             -3.146434         -2.245540          0.000000
H             -4.012308         -1.781031          0.000000
H             -3.305025         -3.215259          0.000000

