%NProcShared=4 
%Mem=4GB  
%Chk=H2O_H2O_1138.chk 

#p CCSD(T)/cc-pVTZ 

H2O_H2O_1138

0 1
O             -0.000000         -0.009833          0.000000
H             -0.799571         -0.580965          0.000000
H              0.799571         -0.580965          0.000000
O             -2.398478         -1.714430          0.000000
H             -3.355072         -1.489854          0.000000
H             -2.300684         -2.692153          0.000000

