%NProcShared=4 
%Mem=4GB  
%Chk=H2O_H2O_495.chk 

#p CCSD(T)/cc-pVTZ 

H2O_H2O_495

0 1
O             -0.000000         -0.009833          0.000000
H             -0.799571         -0.580965          0.000000
H              0.799571         -0.580965          0.000000
O             -1.978632         -1.409093          0.000000
H             -2.737248         -0.784586          0.000000
H             -2.323359         -2.329239          0.000000

