%NProcShared=4 
%Mem=4GB  
%Chk=H2O_H2O_1622.chk 

#p CCSD(T)/cc-pVTZ 

H2O_H2O_1622

0 1
O             -0.000000         -0.009833          0.000000
H             -0.799571         -0.580965          0.000000
H              0.799571         -0.580965          0.000000
O             -2.709184         -1.929483          0.000000
H             -3.379794         -1.211300          0.000000
H             -3.171064         -2.796762          0.000000

