%NProcShared=4 
%Mem=4GB  
%Chk=H2O_H2O_1082.chk 

#p CCSD(T)/cc-pVTZ 

H2O_H2O_1082

0 1
O             -0.000000         -0.009833          0.000000
H             -0.799571         -0.580965          0.000000
H              0.799571         -0.580965          0.000000
O             -2.362977         -1.693581          0.000000
H             -3.332696         -1.852173          0.000000
H             -1.898468         -2.559455          0.000000

