%NProcShared=4 
%Mem=4GB  
%Chk=H2O_H2O_1540.chk 

#p CCSD(T)/cc-pVTZ 

H2O_H2O_1540

0 1
O             -0.000000         -0.009833          0.000000
H             -0.799571         -0.580965          0.000000
H              0.799571         -0.580965          0.000000
O             -2.658924         -1.898886          0.000000
H             -3.578021         -1.551371          0.000000
H             -2.689584         -2.881009          0.000000

