%NProcShared=4 
%Mem=4GB  
%Chk=H2O_H2O_4178.chk 

#p CCSD(T)/cc-pVTZ 

H2O_H2O_4178

0 1
O             -0.000000         -0.009833          0.000000
H             -0.799571         -0.580965          0.000000
H              0.799571         -0.580965          0.000000
O             -4.372929         -3.131847          0.000000
H             -5.268559         -3.536017          0.000000
H             -3.700144         -3.847994          0.000000

