%NProcShared=4 
%Mem=4GB  
%Chk=H2O_H2O_4847.chk 

#p CCSD(T)/cc-pVTZ 

H2O_H2O_4847

0 1
O             -0.000000         -0.009833          0.000000
H             -0.799571         -0.580965          0.000000
H              0.799571         -0.580965          0.000000
O             -4.802712         -3.424885          0.000000
H             -5.473322         -2.706702          0.000000
H             -5.264592         -4.292164          0.000000

