%NProcShared=4 
%Mem=4GB  
%Chk=H2O_H2O_3280.chk 

#p CCSD(T)/cc-pVTZ 

H2O_H2O_3280

0 1
O             -0.000000         -0.009833          0.000000
H             -0.799571         -0.580965          0.000000
H              0.799571         -0.580965          0.000000
O             -3.789932         -2.714193          0.000000
H             -4.730654         -2.998001          0.000000
H             -3.216378         -3.512029          0.000000

