%NProcShared=4 
%Mem=4GB  
%Chk=H2O_H2O_2053.chk 

#p CCSD(T)/cc-pVTZ 

H2O_H2O_2053

0 1
O             -0.000000         -0.009833          0.000000
H             -0.799571         -0.580965          0.000000
H              0.799571         -0.580965          0.000000
O             -2.993473         -2.146505          0.000000
H             -3.889103         -2.550674          0.000000
H             -2.320687         -2.862651          0.000000

