%NProcShared=4 
%Mem=4GB  
%Chk=H2O_H2O_1218.chk 

#p CCSD(T)/cc-pVTZ 

H2O_H2O_1218

0 1
O             -0.000000         -0.009833          0.000000
H             -0.799571         -0.580965          0.000000
H              0.799571         -0.580965          0.000000
O             -2.448857         -1.746486          0.000000
H             -3.282496         -1.226342          0.000000
H             -2.670531         -2.703757          0.000000

