%NProcShared=4 
%Mem=4GB  
%Chk=H2O_H2O_4659.chk 

#p CCSD(T)/cc-pVTZ 

H2O_H2O_4659

0 1
O             -0.000000         -0.009833          0.000000
H             -0.799571         -0.580965          0.000000
H              0.799571         -0.580965          0.000000
O             -4.684823         -3.350632          0.000000
H             -5.666946         -3.381293          0.000000
H             -4.337307         -4.269729          0.000000

