%NProcShared=4 
%Mem=4GB  
%Chk=H2O_H2O_3867.chk 

#p CCSD(T)/cc-pVTZ 

H2O_H2O_3867

0 1
O             -0.000000         -0.009833          0.000000
H             -0.799571         -0.580965          0.000000
H              0.799571         -0.580965          0.000000
O             -4.168854         -2.975853          0.000000
H             -5.034728         -2.511344          0.000000
H             -4.327446         -3.945572          0.000000

