%NProcShared=4 
%Mem=4GB  
%Chk=H2O_H2O_1371.chk 

#p CCSD(T)/cc-pVTZ 

H2O_H2O_1371

0 1
O             -0.000000         -0.009833          0.000000
H             -0.799571         -0.580965          0.000000
H              0.799571         -0.580965          0.000000
O             -2.546790         -1.814195          0.000000
H             -3.262936         -1.141410          0.000000
H             -2.950959         -2.709826          0.000000

