%NProcShared=4 
%Mem=4GB  
%Chk=H2O_H2O_2560.chk 

#p CCSD(T)/cc-pVTZ 

H2O_H2O_2560

0 1
O             -0.000000         -0.009833          0.000000
H             -0.799571         -0.580965          0.000000
H              0.799571         -0.580965          0.000000
O             -3.322119         -2.376507          0.000000
H             -4.304144         -2.342868          0.000000
H             -3.035459         -3.316365          0.000000

