%NProcShared=4 
%Mem=4GB  
%Chk=H2O_H2O_1452.chk 

#p CCSD(T)/cc-pVTZ 

H2O_H2O_1452

0 1
O             -0.000000         -0.009833          0.000000
H             -0.799571         -0.580965          0.000000
H              0.799571         -0.580965          0.000000
O             -2.603345         -1.868395          0.000000
H             -3.470623         -2.330276          0.000000
H             -1.885161         -2.539006          0.000000

