%NProcShared=4 
%Mem=4GB  
%Chk=H2O_H2O_3708.chk 

#p CCSD(T)/cc-pVTZ 

H2O_H2O_3708

0 1
O             -0.000000         -0.009833          0.000000
H             -0.799571         -0.580965          0.000000
H              0.799571         -0.580965          0.000000
O             -4.067579         -2.910466          0.000000
H             -5.045594         -3.005295          0.000000
H             -3.660695         -3.804866          0.000000

