%NProcShared=4 
%Mem=4GB  
%Chk=H2O_H2O_4531.chk 

#p CCSD(T)/cc-pVTZ 

H2O_H2O_4531

0 1
O             -0.000000         -0.009833          0.000000
H             -0.799571         -0.580965          0.000000
H              0.799571         -0.580965          0.000000
O             -4.601979         -3.293579          0.000000
H             -5.559249         -3.515254          0.000000
H             -4.081834         -4.127219          0.000000

