%NProcShared=4 
%Mem=4GB  
%Chk=H2O_H2O_2774.chk 

#p CCSD(T)/cc-pVTZ 

H2O_H2O_2774

0 1
O             -0.000000         -0.009833          0.000000
H             -0.799571         -0.580965          0.000000
H              0.799571         -0.580965          0.000000
O             -3.455797         -2.461444          0.000000
H             -4.026929         -1.661873          0.000000
H             -4.026929         -3.261015          0.000000

