%NProcShared=4 
%Mem=4GB  
%Chk=H2O_H2O_3962.chk 

#p CCSD(T)/cc-pVTZ 

H2O_H2O_3962

0 1
O             -0.000000         -0.009833          0.000000
H             -0.799571         -0.580965          0.000000
H              0.799571         -0.580965          0.000000
O             -4.231904         -3.024826          0.000000
H             -5.201138         -2.863295          0.000000
H             -4.070373         -3.994059          0.000000

