%NProcShared=4 
%Mem=4GB  
%Chk=H2O_H2O_3073.chk 

#p CCSD(T)/cc-pVTZ 

H2O_H2O_3073

0 1
O             -0.000000         -0.009833          0.000000
H             -0.799571         -0.580965          0.000000
H              0.799571         -0.580965          0.000000
O             -3.650523         -2.601194          0.000000
H             -4.272726         -1.840689          0.000000
H             -4.168137         -3.436408          0.000000

