%NProcShared=4 
%Mem=4GB  
%Chk=H2O_H2O_2129.chk 

#p CCSD(T)/cc-pVTZ 

H2O_H2O_2129

0 1
O             -0.000000         -0.009833          0.000000
H             -0.799571         -0.580965          0.000000
H              0.799571         -0.580965          0.000000
O             -3.042786         -2.181135          0.000000
H             -3.962933         -2.525862          0.000000
H             -2.418280         -2.939751          0.000000

