%NProcShared=4 
%Mem=4GB  
%Chk=H2O_H2O_2071.chk 

#p CCSD(T)/cc-pVTZ 

H2O_H2O_2071

0 1
O             -0.000000         -0.009833          0.000000
H             -0.799571         -0.580965          0.000000
H              0.799571         -0.580965          0.000000
O             -3.001199         -2.138779          0.000000
H             -3.717345         -1.465993          0.000000
H             -3.405368         -3.034409          0.000000

