%NProcShared=4 
%Mem=4GB  
%Chk=H2O_H2O_1642.chk 

#p CCSD(T)/cc-pVTZ 

H2O_H2O_1642

0 1
O             -0.000000         -0.009833          0.000000
H             -0.799571         -0.580965          0.000000
H              0.799571         -0.580965          0.000000
O             -2.724482         -1.944141          0.000000
H             -3.590356         -1.479633          0.000000
H             -2.883074         -2.913860          0.000000

