%NProcShared=4 
%Mem=4GB  
%Chk=H2O_H2O_1712.chk 

#p CCSD(T)/cc-pVTZ 

H2O_H2O_1712

0 1
O             -0.000000         -0.009833          0.000000
H             -0.799571         -0.580965          0.000000
H              0.799571         -0.580965          0.000000
O             -2.771303         -1.981522          0.000000
H             -3.740537         -1.819991          0.000000
H             -2.609772         -2.950756          0.000000

