%NProcShared=4 
%Mem=4GB  
%Chk=H2O_H2O_3321.chk 

#p CCSD(T)/cc-pVTZ 

H2O_H2O_3321

0 1
O             -0.000000         -0.009833          0.000000
H             -0.799571         -0.580965          0.000000
H              0.799571         -0.580965          0.000000
O             -3.812644         -2.718392          0.000000
H             -4.528790         -2.045607          0.000000
H             -4.216813         -3.614022          0.000000

