%NProcShared=4 
%Mem=4GB  
%Chk=H2O_H2O_4856.chk 

#p CCSD(T)/cc-pVTZ 

H2O_H2O_4856

0 1
O             -0.000000         -0.009833          0.000000
H             -0.799571         -0.580965          0.000000
H              0.799571         -0.580965          0.000000
O             -4.812954         -3.444279          0.000000
H             -5.770225         -3.665953          0.000000
H             -4.292810         -4.277919          0.000000

