%NProcShared=4 
%Mem=4GB  
%Chk=H2O_H2O_281.chk 

#p CCSD(T)/cc-pVTZ 

H2O_H2O_281

0 1
O             -0.000000         -0.009833          0.000000
H             -0.799571         -0.580965          0.000000
H              0.799571         -0.580965          0.000000
O             -1.843066         -1.322894          0.000000
H             -2.800336         -1.544569          0.000000
H             -1.322921         -2.156534          0.000000

