%NProcShared=4 
%Mem=4GB  
%Chk=H2O_H2O_2592.chk 

#p CCSD(T)/cc-pVTZ 

H2O_H2O_2592

0 1
O             -0.000000         -0.009833          0.000000
H             -0.799571         -0.580965          0.000000
H              0.799571         -0.580965          0.000000
O             -3.341181         -2.384647          0.000000
H             -4.207055         -1.920138          0.000000
H             -3.499772         -3.354366          0.000000

