%NProcShared=4 
%Mem=4GB  
%Chk=H2O_H2O_2072.chk 

#p CCSD(T)/cc-pVTZ 

H2O_H2O_2072

0 1
O             -0.000000         -0.009833          0.000000
H             -0.799571         -0.580965          0.000000
H              0.799571         -0.580965          0.000000
O             -3.001304         -2.138144          0.000000
H             -3.671914         -1.419961          0.000000
H             -3.463184         -3.005423          0.000000

