%NProcShared=4 
%Mem=4GB  
%Chk=H2O_H2O_2791.chk 

#p CCSD(T)/cc-pVTZ 

H2O_H2O_2791

0 1
O             -0.000000         -0.009833          0.000000
H             -0.799571         -0.580965          0.000000
H              0.799571         -0.580965          0.000000
O             -3.470708         -2.477953          0.000000
H             -4.365109         -2.071070          0.000000
H             -3.565538         -3.455968          0.000000

