%NProcShared=4 
%Mem=4GB  
%Chk=H2O_H2O_1045.chk 

#p CCSD(T)/cc-pVTZ 

H2O_H2O_1045

0 1
O             -0.000000         -0.009833          0.000000
H             -0.799571         -0.580965          0.000000
H              0.799571         -0.580965          0.000000
O             -2.335668         -1.664123          0.000000
H             -3.094283         -1.039616          0.000000
H             -2.680395         -2.584269          0.000000

