%NProcShared=4 
%Mem=4GB  
%Chk=H2O_H2O_3753.chk 

#p CCSD(T)/cc-pVTZ 

H2O_H2O_3753

0 1
O             -0.000000         -0.009833          0.000000
H             -0.799571         -0.580965          0.000000
H              0.799571         -0.580965          0.000000
O             -4.097038         -2.934779          0.000000
H             -4.992668         -3.338948          0.000000
H             -3.424252         -3.650925          0.000000

