%NProcShared=4 
%Mem=4GB  
%Chk=H2O_H2O_1121.chk 

#p CCSD(T)/cc-pVTZ 

H2O_H2O_1121

0 1
O             -0.000000         -0.009833          0.000000
H             -0.799571         -0.580965          0.000000
H              0.799571         -0.580965          0.000000
O             -2.384501         -1.698273          0.000000
H             -3.100647         -1.025487          0.000000
H             -2.788670         -2.593903          0.000000

