%NProcShared=4 
%Mem=4GB  
%Chk=H2O_H2O_2147.chk 

#p CCSD(T)/cc-pVTZ 

H2O_H2O_2147

0 1
O             -0.000000         -0.009833          0.000000
H             -0.799571         -0.580965          0.000000
H              0.799571         -0.580965          0.000000
O             -3.049990         -2.172921          0.000000
H             -3.720601         -1.454738          0.000000
H             -3.511871         -3.040199          0.000000

