%NProcShared=4 
%Mem=4GB  
%Chk=H2O_H2O_1033.chk 

#p CCSD(T)/cc-pVTZ 

H2O_H2O_1033

0 1
O             -0.000000         -0.009833          0.000000
H             -0.799571         -0.580965          0.000000
H              0.799571         -0.580965          0.000000
O             -2.331086         -1.670093          0.000000
H             -3.309102         -1.764922          0.000000
H             -1.924203         -2.564494          0.000000

