%NProcShared=4 
%Mem=4GB  
%Chk=H2O_H2O_3250.chk 

#p CCSD(T)/cc-pVTZ 

H2O_H2O_3250

0 1
O             -0.000000         -0.009833          0.000000
H             -0.799571         -0.580965          0.000000
H              0.799571         -0.580965          0.000000
O             -3.770542         -2.703122          0.000000
H             -4.570113         -3.274254          0.000000
H             -2.970970         -3.274254          0.000000

