%NProcShared=4 
%Mem=4GB  
%Chk=H2O_H2O_4233.chk 

#p CCSD(T)/cc-pVTZ 

H2O_H2O_4233

0 1
O             -0.000000         -0.009833          0.000000
H             -0.799571         -0.580965          0.000000
H              0.799571         -0.580965          0.000000
O             -4.408385         -3.153903          0.000000
H             -5.386401         -3.248732          0.000000
H             -4.001502         -4.048304          0.000000

