%NProcShared=4 
%Mem=4GB  
%Chk=H2O_H2O_808.chk 

#p CCSD(T)/cc-pVTZ 

H2O_H2O_808

0 1
O             -0.000000         -0.009833          0.000000
H             -0.799571         -0.580965          0.000000
H              0.799571         -0.580965          0.000000
O             -2.185026         -1.565763          0.000000
H             -3.163041         -1.660592          0.000000
H             -1.778143         -2.460164          0.000000

