%NProcShared=4 
%Mem=4GB  
%Chk=H2O_H2O_2892.chk 

#p CCSD(T)/cc-pVTZ 

H2O_H2O_2892

0 1
O             -0.000000         -0.009833          0.000000
H             -0.799571         -0.580965          0.000000
H              0.799571         -0.580965          0.000000
O             -3.535927         -2.523754          0.000000
H             -4.401801         -2.059246          0.000000
H             -3.694519         -3.493473          0.000000

