%NProcShared=4 
%Mem=4GB  
%Chk=H2O_H2O_2788.chk 

#p CCSD(T)/cc-pVTZ 

H2O_H2O_2788

0 1
O             -0.000000         -0.009833          0.000000
H             -0.799571         -0.580965          0.000000
H              0.799571         -0.580965          0.000000
O             -3.469586         -2.479520          0.000000
H             -4.426179         -2.254944          0.000000
H             -3.371791         -3.457243          0.000000

