%NProcShared=4 
%Mem=4GB  
%Chk=H2O_H2O_4333.chk 

#p CCSD(T)/cc-pVTZ 

H2O_H2O_4333

0 1
O             -0.000000         -0.009833          0.000000
H             -0.799571         -0.580965          0.000000
H              0.799571         -0.580965          0.000000
O             -4.473301         -3.200272          0.000000
H             -5.451316         -3.295101          0.000000
H             -4.066418         -4.094673          0.000000

