%NProcShared=4 
%Mem=4GB  
%Chk=H2O_H2O_4180.chk 

#p CCSD(T)/cc-pVTZ 

H2O_H2O_4180

0 1
O             -0.000000         -0.009833          0.000000
H             -0.799571         -0.580965          0.000000
H              0.799571         -0.580965          0.000000
O             -4.374172         -3.131514          0.000000
H             -5.314894         -3.415323          0.000000
H             -3.800618         -3.929350          0.000000

