%NProcShared=4 
%Mem=4GB  
%Chk=H2O_H2O_2603.chk 

#p CCSD(T)/cc-pVTZ 

H2O_H2O_2603

0 1
O             -0.000000         -0.009833          0.000000
H             -0.799571         -0.580965          0.000000
H              0.799571         -0.580965          0.000000
O             -3.350509         -2.401535          0.000000
H             -4.246139         -2.805704          0.000000
H             -2.677723         -3.117681          0.000000

