%NProcShared=4 
%Mem=4GB  
%Chk=H2O_H2O_1936.chk 

#p CCSD(T)/cc-pVTZ 

H2O_H2O_1936

0 1
O             -0.000000         -0.009833          0.000000
H             -0.799571         -0.580965          0.000000
H              0.799571         -0.580965          0.000000
O             -2.916894         -2.086292          0.000000
H             -3.894617         -1.988498          0.000000
H             -2.692317         -3.042886          0.000000

