%NProcShared=4 
%Mem=4GB  
%Chk=H2O_H2O_3921.chk 

#p CCSD(T)/cc-pVTZ 

H2O_H2O_3921

0 1
O             -0.000000         -0.009833          0.000000
H             -0.799571         -0.580965          0.000000
H              0.799571         -0.580965          0.000000
O             -4.202137         -2.996607          0.000000
H             -4.918284         -2.323821          0.000000
H             -4.606306         -3.892237          0.000000

