%NProcShared=4 
%Mem=4GB  
%Chk=H2O_H2O_3001.chk 

#p CCSD(T)/cc-pVTZ 

H2O_H2O_3001

0 1
O             -0.000000         -0.009833          0.000000
H             -0.799571         -0.580965          0.000000
H              0.799571         -0.580965          0.000000
O             -3.608896         -2.587179          0.000000
H             -4.444109         -3.104793          0.000000
H             -2.848390         -3.209382          0.000000

