%NProcShared=4 
%Mem=4GB  
%Chk=H2O_H2O_2493.chk 

#p CCSD(T)/cc-pVTZ 

H2O_H2O_2493

0 1
O             -0.000000         -0.009833          0.000000
H             -0.799571         -0.580965          0.000000
H              0.799571         -0.580965          0.000000
O             -3.276530         -2.337692          0.000000
H             -4.110170         -1.817547          0.000000
H             -3.498205         -3.294962          0.000000

