%NProcShared=4 
%Mem=4GB  
%Chk=H2O_H2O_536.chk 

#p CCSD(T)/cc-pVTZ 

H2O_H2O_536

0 1
O             -0.000000         -0.009833          0.000000
H             -0.799571         -0.580965          0.000000
H              0.799571         -0.580965          0.000000
O             -2.008075         -1.437125          0.000000
H             -2.985798         -1.339331          0.000000
H             -1.783499         -2.393719          0.000000

