%NProcShared=4 
%Mem=4GB  
%Chk=H2O_H2O_3069.chk 

#p CCSD(T)/cc-pVTZ 

H2O_H2O_3069

0 1
O             -0.000000         -0.009833          0.000000
H             -0.799571         -0.580965          0.000000
H              0.799571         -0.580965          0.000000
O             -3.650022         -2.603712          0.000000
H             -4.447858         -2.030158          0.000000
H             -3.933830         -3.544435          0.000000

