%NProcShared=4 
%Mem=4GB  
%Chk=H2O_H2O_4833.chk 

#p CCSD(T)/cc-pVTZ 

H2O_H2O_4833

0 1
O             -0.000000         -0.009833          0.000000
H             -0.799571         -0.580965          0.000000
H              0.799571         -0.580965          0.000000
O             -4.797879         -3.432118          0.000000
H             -5.775894         -3.526947          0.000000
H             -4.390996         -4.326518          0.000000

