%NProcShared=4 
%Mem=4GB  
%Chk=H2O_H2O_2275.chk 

#p CCSD(T)/cc-pVTZ 

H2O_H2O_2275

0 1
O             -0.000000         -0.009833          0.000000
H             -0.799571         -0.580965          0.000000
H              0.799571         -0.580965          0.000000
O             -3.137615         -2.251024          0.000000
H             -3.937186         -2.822156          0.000000
H             -2.338043         -2.822156          0.000000

