%NProcShared=4 
%Mem=4GB  
%Chk=H2O_H2O_2740.chk 

#p CCSD(T)/cc-pVTZ 

H2O_H2O_2740

0 1
O             -0.000000         -0.009833          0.000000
H             -0.799571         -0.580965          0.000000
H              0.799571         -0.580965          0.000000
O             -3.437911         -2.455315          0.000000
H             -4.357008         -2.107799          0.000000
H             -3.468572         -3.437438          0.000000

