%NProcShared=4 
%Mem=4GB  
%Chk=H2O_H2O_1756.chk 

#p CCSD(T)/cc-pVTZ 

H2O_H2O_1756

0 1
O             -0.000000         -0.009833          0.000000
H             -0.799571         -0.580965          0.000000
H              0.799571         -0.580965          0.000000
O             -2.800571         -2.006838          0.000000
H             -3.757841         -2.228512          0.000000
H             -2.280426         -2.840478          0.000000

