%NProcShared=4 
%Mem=4GB  
%Chk=H2O_H2O_3019.chk 

#p CCSD(T)/cc-pVTZ 

H2O_H2O_3019

0 1
O             -0.000000         -0.009833          0.000000
H             -0.799571         -0.580965          0.000000
H              0.799571         -0.580965          0.000000
O             -3.617564         -2.580527          0.000000
H             -4.415400         -2.006973          0.000000
H             -3.901372         -3.521250          0.000000

