%NProcShared=4 
%Mem=4GB  
%Chk=H2O_H2O_2156.chk 

#p CCSD(T)/cc-pVTZ 

H2O_H2O_2156

0 1
O             -0.000000         -0.009833          0.000000
H             -0.799571         -0.580965          0.000000
H              0.799571         -0.580965          0.000000
O             -3.060233         -2.192314          0.000000
H             -4.017504         -2.413989          0.000000
H             -2.540088         -3.025954          0.000000

