%NProcShared=4 
%Mem=4GB  
%Chk=H2O_H2O_237.chk 

#p CCSD(T)/cc-pVTZ 

H2O_H2O_237

0 1
O             -0.000000         -0.009833          0.000000
H             -0.799571         -0.580965          0.000000
H              0.799571         -0.580965          0.000000
O             -1.813798         -1.297578          0.000000
H             -2.783032         -1.136047          0.000000
H             -1.652267         -2.266812          0.000000

