%NProcShared=4 
%Mem=4GB  
%Chk=H2O_H2O_3910.chk 

#p CCSD(T)/cc-pVTZ 

H2O_H2O_3910

0 1
O             -0.000000         -0.009833          0.000000
H             -0.799571         -0.580965          0.000000
H              0.799571         -0.580965          0.000000
O             -4.198479         -3.002489          0.000000
H             -5.180505         -2.968851          0.000000
H             -3.911820         -3.942347          0.000000

