%NProcShared=4 
%Mem=4GB  
%Chk=H2O_H2O_4966.chk 

#p CCSD(T)/cc-pVTZ 

H2O_H2O_4966

0 1
O             -0.000000         -0.009833          0.000000
H             -0.799571         -0.580965          0.000000
H              0.799571         -0.580965          0.000000
O             -4.882622         -3.486480          0.000000
H             -5.777023         -3.079597          0.000000
H             -4.977452         -4.464495          0.000000

