%NProcShared=4 
%Mem=4GB  
%Chk=H2O_H2O_749.chk 

#p CCSD(T)/cc-pVTZ 

H2O_H2O_749

0 1
O             -0.000000         -0.009833          0.000000
H             -0.799571         -0.580965          0.000000
H              0.799571         -0.580965          0.000000
O             -2.141256         -1.522471          0.000000
H             -2.712388         -0.722899          0.000000
H             -2.712388         -2.322042          0.000000

