%NProcShared=4 
%Mem=4GB  
%Chk=H2O_H2O_387.chk 

#p CCSD(T)/cc-pVTZ 

H2O_H2O_387

0 1
O             -0.000000         -0.009833          0.000000
H             -0.799571         -0.580965          0.000000
H              0.799571         -0.580965          0.000000
O             -1.911172         -1.367132          0.000000
H             -2.880405         -1.205601          0.000000
H             -1.749641         -2.336366          0.000000

