%NProcShared=4 
%Mem=4GB  
%Chk=H2O_H2O_4509.chk 

#p CCSD(T)/cc-pVTZ 

H2O_H2O_4509

0 1
O             -0.000000         -0.009833          0.000000
H             -0.799571         -0.580965          0.000000
H              0.799571         -0.580965          0.000000
O             -4.587450         -3.281078          0.000000
H             -5.569573         -3.311739          0.000000
H             -4.239934         -4.200175          0.000000

