%NProcShared=4 
%Mem=4GB  
%Chk=H2O_H2O_901.chk 

#p CCSD(T)/cc-pVTZ 

H2O_H2O_901

0 1
O             -0.000000         -0.009833          0.000000
H             -0.799571         -0.580965          0.000000
H              0.799571         -0.580965          0.000000
O             -2.245669         -1.613428          0.000000
H             -3.080882         -2.131043          0.000000
H             -1.485163         -2.235632          0.000000

