%NProcShared=4 
%Mem=4GB  
%Chk=H2O_H2O_2077.chk 

#p CCSD(T)/cc-pVTZ 

H2O_H2O_2077

0 1
O             -0.000000         -0.009833          0.000000
H             -0.799571         -0.580965          0.000000
H              0.799571         -0.580965          0.000000
O             -3.009067         -2.158202          0.000000
H             -3.876346         -2.620083          0.000000
H             -2.290884         -2.828813          0.000000

