%NProcShared=4 
%Mem=4GB  
%Chk=H2O_H2O_3702.chk 

#p CCSD(T)/cc-pVTZ 

H2O_H2O_3702

0 1
O             -0.000000         -0.009833          0.000000
H             -0.799571         -0.580965          0.000000
H              0.799571         -0.580965          0.000000
O             -4.063946         -2.911699          0.000000
H             -4.931224         -3.373580          0.000000
H             -3.345762         -3.582310          0.000000

