%NProcShared=4 
%Mem=4GB  
%Chk=H2O_H2O_4434.chk 

#p CCSD(T)/cc-pVTZ 

H2O_H2O_4434

0 1
O             -0.000000         -0.009833          0.000000
H             -0.799571         -0.580965          0.000000
H              0.799571         -0.580965          0.000000
O             -4.538763         -3.246302          0.000000
H             -5.520886         -3.276962          0.000000
H             -4.191247         -4.165399          0.000000

