%NProcShared=4 
%Mem=4GB  
%Chk=H2O_H2O_2633.chk 

#p CCSD(T)/cc-pVTZ 

H2O_H2O_2633

0 1
O             -0.000000         -0.009833          0.000000
H             -0.799571         -0.580965          0.000000
H              0.799571         -0.580965          0.000000
O             -3.369736         -2.411998          0.000000
H             -4.347751         -2.506828          0.000000
H             -2.962853         -3.306399          0.000000

