%NProcShared=4 
%Mem=4GB  
%Chk=H2O_H2O_1445.chk 

#p CCSD(T)/cc-pVTZ 

H2O_H2O_1445

0 1
O             -0.000000         -0.009833          0.000000
H             -0.799571         -0.580965          0.000000
H              0.799571         -0.580965          0.000000
O             -2.595330         -1.849599          0.000000
H             -3.353946         -1.225092          0.000000
H             -2.940057         -2.769745          0.000000

