%NProcShared=4 
%Mem=4GB  
%Chk=H2O_H2O_3394.chk 

#p CCSD(T)/cc-pVTZ 

H2O_H2O_3394

0 1
O             -0.000000         -0.009833          0.000000
H             -0.799571         -0.580965          0.000000
H              0.799571         -0.580965          0.000000
O             -3.860998         -2.754411          0.000000
H             -4.658833         -2.180857          0.000000
H             -4.144806         -3.695134          0.000000

