%NProcShared=4 
%Mem=4GB  
%Chk=H2O_H2O_2628.chk 

#p CCSD(T)/cc-pVTZ 

H2O_H2O_2628

0 1
O             -0.000000         -0.009833          0.000000
H             -0.799571         -0.580965          0.000000
H              0.799571         -0.580965          0.000000
O             -3.366738         -2.413127          0.000000
H             -4.262368         -2.817296          0.000000
H             -2.693952         -3.129273          0.000000

