%NProcShared=4 
%Mem=4GB  
%Chk=H2O_H2O_1554.chk 

#p CCSD(T)/cc-pVTZ 

H2O_H2O_1554

0 1
O             -0.000000         -0.009833          0.000000
H             -0.799571         -0.580965          0.000000
H              0.799571         -0.580965          0.000000
O             -2.669522         -1.914513          0.000000
H             -3.589668         -2.259240          0.000000
H             -2.045015         -2.673129          0.000000

