%NProcShared=4 
%Mem=4GB  
%Chk=H2O_H2O_3581.chk 

#p CCSD(T)/cc-pVTZ 

H2O_H2O_3581

0 1
O             -0.000000         -0.009833          0.000000
H             -0.799571         -0.580965          0.000000
H              0.799571         -0.580965          0.000000
O             -3.985280         -2.853073          0.000000
H             -4.942551         -3.074748          0.000000
H             -3.465135         -3.686713          0.000000

