%NProcShared=4 
%Mem=4GB  
%Chk=H2O_H2O_4658.chk 

#p CCSD(T)/cc-pVTZ 

H2O_H2O_4658

0 1
O             -0.000000         -0.009833          0.000000
H             -0.799571         -0.580965          0.000000
H              0.799571         -0.580965          0.000000
O             -4.684276         -3.350972          0.000000
H             -5.662292         -3.445801          0.000000
H             -4.277393         -4.245372          0.000000

