%NProcShared=4 
%Mem=4GB  
%Chk=H2O_H2O_4447.chk 

#p CCSD(T)/cc-pVTZ 

H2O_H2O_4447

0 1
O             -0.000000         -0.009833          0.000000
H             -0.799571         -0.580965          0.000000
H              0.799571         -0.580965          0.000000
O             -4.543049         -3.239409          0.000000
H             -5.213660         -2.521226          0.000000
H             -5.004930         -4.106688          0.000000

