%NProcShared=4 
%Mem=4GB  
%Chk=H2O_H2O_4855.chk 

#p CCSD(T)/cc-pVTZ 

H2O_H2O_4855

0 1
O             -0.000000         -0.009833          0.000000
H             -0.799571         -0.580965          0.000000
H              0.799571         -0.580965          0.000000
O             -4.812352         -3.444506          0.000000
H             -5.753075         -3.728314          0.000000
H             -4.238798         -4.242341          0.000000

