%NProcShared=4 
%Mem=4GB  
%Chk=H2O_H2O_2215.chk 

#p CCSD(T)/cc-pVTZ 

H2O_H2O_2215

0 1
O             -0.000000         -0.009833          0.000000
H             -0.799571         -0.580965          0.000000
H              0.799571         -0.580965          0.000000
O             -3.097104         -2.211877          0.000000
H             -4.016201         -1.864362          0.000000
H             -3.127765         -3.194000          0.000000

