%NProcShared=4 
%Mem=4GB  
%Chk=H2O_H2O_3664.chk 

#p CCSD(T)/cc-pVTZ 

H2O_H2O_3664

0 1
O             -0.000000         -0.009833          0.000000
H             -0.799571         -0.580965          0.000000
H              0.799571         -0.580965          0.000000
O             -4.038005         -2.884751          0.000000
H             -4.977863         -2.598092          0.000000
H             -4.004367         -3.866777          0.000000

