%NProcShared=4 
%Mem=4GB  
%Chk=H2O_H2O_3430.chk 

#p CCSD(T)/cc-pVTZ 

H2O_H2O_3430

0 1
O             -0.000000         -0.009833          0.000000
H             -0.799571         -0.580965          0.000000
H              0.799571         -0.580965          0.000000
O             -3.887305         -2.783746          0.000000
H             -4.828027         -3.067555          0.000000
H             -3.313751         -3.581582          0.000000

