%NProcShared=4 
%Mem=4GB  
%Chk=H2O_H2O_856.chk 

#p CCSD(T)/cc-pVTZ 

H2O_H2O_856

0 1
O             -0.000000         -0.009833          0.000000
H             -0.799571         -0.580965          0.000000
H              0.799571         -0.580965          0.000000
O             -2.216330         -1.589516          0.000000
H             -3.173601         -1.811191          0.000000
H             -1.696186         -2.423156          0.000000

