%NProcShared=4 
%Mem=4GB  
%Chk=H2O_H2O_2430.chk 

#p CCSD(T)/cc-pVTZ 

H2O_H2O_2430

0 1
O             -0.000000         -0.009833          0.000000
H             -0.799571         -0.580965          0.000000
H              0.799571         -0.580965          0.000000
O             -3.238149         -2.320056          0.000000
H             -4.178872         -2.603864          0.000000
H             -2.664595         -3.117892          0.000000

