%NProcShared=4 
%Mem=4GB  
%Chk=H2O_H2O_254.chk 

#p CCSD(T)/cc-pVTZ 

H2O_H2O_254

0 1
O             -0.000000         -0.009833          0.000000
H             -0.799571         -0.580965          0.000000
H              0.799571         -0.580965          0.000000
O             -1.825619         -1.311716          0.000000
H             -2.745765         -1.656442          0.000000
H             -1.201112         -2.070331          0.000000

