%NProcShared=4 
%Mem=4GB  
%Chk=H2O_H2O_4915.chk 

#p CCSD(T)/cc-pVTZ 

H2O_H2O_4915

0 1
O             -0.000000         -0.009833          0.000000
H             -0.799571         -0.580965          0.000000
H              0.799571         -0.580965          0.000000
O             -4.849825         -3.463842          0.000000
H             -5.768922         -3.116326          0.000000
H             -4.880486         -4.445965          0.000000

