%NProcShared=4 
%Mem=4GB  
%Chk=H2O_H2O_4236.chk 

#p CCSD(T)/cc-pVTZ 

H2O_H2O_4236

0 1
O             -0.000000         -0.009833          0.000000
H             -0.799571         -0.580965          0.000000
H              0.799571         -0.580965          0.000000
O             -4.409952         -3.152781          0.000000
H             -5.387675         -3.054986          0.000000
H             -4.185376         -4.109374          0.000000

