%NProcShared=4 
%Mem=4GB  
%Chk=H2O_H2O_1652.chk 

#p CCSD(T)/cc-pVTZ 

H2O_H2O_1652

0 1
O             -0.000000         -0.009833          0.000000
H             -0.799571         -0.580965          0.000000
H              0.799571         -0.580965          0.000000
O             -2.733176         -1.961133          0.000000
H             -3.600454         -2.423014          0.000000
H             -2.014992         -2.631744          0.000000

