%NProcShared=4 
%Mem=4GB  
%Chk=H2O_H2O_3303.chk 

#p CCSD(T)/cc-pVTZ 

H2O_H2O_3303

0 1
O             -0.000000         -0.009833          0.000000
H             -0.799571         -0.580965          0.000000
H              0.799571         -0.580965          0.000000
O             -3.804918         -2.726118          0.000000
H             -4.700548         -3.130287          0.000000
H             -3.132132         -3.442264          0.000000

