%NProcShared=4 
%Mem=4GB  
%Chk=H2O_H2O_3050.chk 

#p CCSD(T)/cc-pVTZ 

H2O_H2O_3050

0 1
O             -0.000000         -0.009833          0.000000
H             -0.799571         -0.580965          0.000000
H              0.799571         -0.580965          0.000000
O             -3.640711         -2.610384          0.000000
H             -4.440282         -3.181516          0.000000
H             -2.841139         -3.181516          0.000000

