%NProcShared=4 
%Mem=4GB  
%Chk=H2O_H2O_2878.chk 

#p CCSD(T)/cc-pVTZ 

H2O_H2O_2878

0 1
O             -0.000000         -0.009833          0.000000
H             -0.799571         -0.580965          0.000000
H              0.799571         -0.580965          0.000000
O             -3.529027         -2.529049          0.000000
H             -4.424657         -2.933219          0.000000
H             -2.856241         -3.245196          0.000000

