%NProcShared=4 
%Mem=4GB  
%Chk=H2O_H2O_4140.chk 

#p CCSD(T)/cc-pVTZ 

H2O_H2O_4140

0 1
O             -0.000000         -0.009833          0.000000
H             -0.799571         -0.580965          0.000000
H              0.799571         -0.580965          0.000000
O             -4.346729         -3.104481          0.000000
H             -5.265826         -2.756966          0.000000
H             -4.377390         -4.086605          0.000000

