%NProcShared=4 
%Mem=4GB  
%Chk=H2O_H2O_1497.chk 

#p CCSD(T)/cc-pVTZ 

H2O_H2O_1497

0 1
O             -0.000000         -0.009833          0.000000
H             -0.799571         -0.580965          0.000000
H              0.799571         -0.580965          0.000000
O             -2.628039         -1.871522          0.000000
H             -3.298650         -1.153339          0.000000
H             -3.089920         -2.738801          0.000000

