%NProcShared=4 
%Mem=4GB  
%Chk=H2O_H2O_2440.chk 

#p CCSD(T)/cc-pVTZ 

H2O_H2O_2440

0 1
O             -0.000000         -0.009833          0.000000
H             -0.799571         -0.580965          0.000000
H              0.799571         -0.580965          0.000000
O             -3.243164         -2.316208          0.000000
H             -4.162261         -1.968692          0.000000
H             -3.273825         -3.298331          0.000000

