%NProcShared=4 
%Mem=4GB  
%Chk=H2O_H2O_3631.chk 

#p CCSD(T)/cc-pVTZ 

H2O_H2O_3631

0 1
O             -0.000000         -0.009833          0.000000
H             -0.799571         -0.580965          0.000000
H              0.799571         -0.580965          0.000000
O             -4.017738         -2.876258          0.000000
H             -4.975009         -3.097932          0.000000
H             -3.497593         -3.709898          0.000000

