%NProcShared=4 
%Mem=4GB  
%Chk=H2O_H2O_190.chk 

#p CCSD(T)/cc-pVTZ 

H2O_H2O_190

0 1
O             -0.000000         -0.009833          0.000000
H             -0.799571         -0.580965          0.000000
H              0.799571         -0.580965          0.000000
O             -1.782563         -1.272904          0.000000
H             -2.701660         -0.925388          0.000000
H             -1.813224         -2.255027          0.000000

