%NProcShared=4 
%Mem=4GB  
%Chk=H2O_H2O_3878.chk 

#p CCSD(T)/cc-pVTZ 

H2O_H2O_3878

0 1
O             -0.000000         -0.009833          0.000000
H             -0.799571         -0.580965          0.000000
H              0.799571         -0.580965          0.000000
O             -4.178182         -2.992740          0.000000
H             -5.073813         -3.396909          0.000000
H             -3.505397         -3.708887          0.000000

