%NProcShared=4 
%Mem=4GB  
%Chk=H2O_H2O_1271.chk 

#p CCSD(T)/cc-pVTZ 

H2O_H2O_1271

0 1
O             -0.000000         -0.009833          0.000000
H             -0.799571         -0.580965          0.000000
H              0.799571         -0.580965          0.000000
O             -2.481874         -1.767826          0.000000
H             -3.198021         -1.095041          0.000000
H             -2.886043         -2.663457          0.000000

