%NProcShared=4 
%Mem=4GB  
%Chk=H2O_H2O_1760.chk 

#p CCSD(T)/cc-pVTZ 

H2O_H2O_1760

0 1
O             -0.000000         -0.009833          0.000000
H             -0.799571         -0.580965          0.000000
H              0.799571         -0.580965          0.000000
O             -2.802794         -2.005555          0.000000
H             -3.784820         -1.971916          0.000000
H             -2.516134         -2.945412          0.000000

