%NProcShared=4 
%Mem=4GB  
%Chk=H2O_H2O_3594.chk 

#p CCSD(T)/cc-pVTZ 

H2O_H2O_3594

0 1
O             -0.000000         -0.009833          0.000000
H             -0.799571         -0.580965          0.000000
H              0.799571         -0.580965          0.000000
O             -3.990829         -2.847149          0.000000
H             -4.788665         -2.273596          0.000000
H             -4.274637         -3.787872          0.000000

