%NProcShared=4 
%Mem=4GB  
%Chk=H2O_H2O_3453.chk 

#p CCSD(T)/cc-pVTZ 

H2O_H2O_3453

0 1
O             -0.000000         -0.009833          0.000000
H             -0.799571         -0.580965          0.000000
H              0.799571         -0.580965          0.000000
O             -3.902291         -2.795672          0.000000
H             -4.797921         -3.199841          0.000000
H             -3.229506         -3.511818          0.000000

