%NProcShared=4 
%Mem=4GB  
%Chk=H2O_H2O_1108.chk 

#p CCSD(T)/cc-pVTZ 

H2O_H2O_1108

0 1
O             -0.000000         -0.009833          0.000000
H             -0.799571         -0.580965          0.000000
H              0.799571         -0.580965          0.000000
O             -2.379773         -1.704870          0.000000
H             -3.357788         -1.799699          0.000000
H             -1.972890         -2.599271          0.000000

