%NProcShared=4 
%Mem=4GB  
%Chk=H2O_H2O_3743.chk 

#p CCSD(T)/cc-pVTZ 

H2O_H2O_3743

0 1
O             -0.000000         -0.009833          0.000000
H             -0.799571         -0.580965          0.000000
H              0.799571         -0.580965          0.000000
O             -4.087975         -2.917305          0.000000
H             -4.921615         -2.397160          0.000000
H             -4.309650         -3.874576          0.000000

