%NProcShared=4 
%Mem=4GB  
%Chk=H2O_H2O_476.chk 

#p CCSD(T)/cc-pVTZ 

H2O_H2O_476

0 1
O             -0.000000         -0.009833          0.000000
H             -0.799571         -0.580965          0.000000
H              0.799571         -0.580965          0.000000
O             -1.969777         -1.416360          0.000000
H             -2.804990         -1.933975          0.000000
H             -1.209271         -2.038564          0.000000

