%NProcShared=4 
%Mem=4GB  
%Chk=H2O_H2O_1983.chk 

#p CCSD(T)/cc-pVTZ 

H2O_H2O_1983

0 1
O             -0.000000         -0.009833          0.000000
H             -0.799571         -0.580965          0.000000
H              0.799571         -0.580965          0.000000
O             -2.947785         -2.110599          0.000000
H             -3.925800         -2.205429          0.000000
H             -2.540901         -3.005000          0.000000

