%NProcShared=4 
%Mem=4GB  
%Chk=H2O_H2O_2236.chk 

#p CCSD(T)/cc-pVTZ 

H2O_H2O_2236

0 1
O             -0.000000         -0.009833          0.000000
H             -0.799571         -0.580965          0.000000
H              0.799571         -0.580965          0.000000
O             -3.111640         -2.225399          0.000000
H             -4.089363         -2.127605          0.000000
H             -2.887064         -3.181993          0.000000

