%NProcShared=4 
%Mem=4GB  
%Chk=H2O_H2O_3263.chk 

#p CCSD(T)/cc-pVTZ 

H2O_H2O_3263

0 1
O             -0.000000         -0.009833          0.000000
H             -0.799571         -0.580965          0.000000
H              0.799571         -0.580965          0.000000
O             -3.777935         -2.699773          0.000000
H             -4.734529         -2.475197          0.000000
H             -3.680140         -3.677496          0.000000

