%NProcShared=4 
%Mem=4GB  
%Chk=H2O_H2O_252.chk 

#p CCSD(T)/cc-pVTZ 

H2O_H2O_252

0 1
O             -0.000000         -0.009833          0.000000
H             -0.799571         -0.580965          0.000000
H              0.799571         -0.580965          0.000000
O             -1.824357         -1.311967          0.000000
H             -2.691636         -1.773847          0.000000
H             -1.106174         -1.982577          0.000000

