%NProcShared=4 
%Mem=4GB  
%Chk=H2O_H2O_91.chk 

#p CCSD(T)/cc-pVTZ 

H2O_H2O_91

0 1
O             -0.000000         -0.009833          0.000000
H             -0.799571         -0.580965          0.000000
H              0.799571         -0.580965          0.000000
O             -1.717987         -1.225988          0.000000
H             -2.612388         -0.819105          0.000000
H             -1.812817         -2.204003          0.000000

