%NProcShared=4 
%Mem=4GB  
%Chk=H2O_H2O_3370.chk 

#p CCSD(T)/cc-pVTZ 

H2O_H2O_3370

0 1
O             -0.000000         -0.009833          0.000000
H             -0.799571         -0.580965          0.000000
H              0.799571         -0.580965          0.000000
O             -3.844955         -2.742203          0.000000
H             -4.603571         -2.117696          0.000000
H             -4.189682         -3.662350          0.000000

