%NProcShared=4 
%Mem=4GB  
%Chk=H2O_H2O_4446.chk 

#p CCSD(T)/cc-pVTZ 

H2O_H2O_4446

0 1
O             -0.000000         -0.009833          0.000000
H             -0.799571         -0.580965          0.000000
H              0.799571         -0.580965          0.000000
O             -4.542944         -3.240044          0.000000
H             -5.259091         -2.567259          0.000000
H             -4.947113         -4.135674          0.000000

