%NProcShared=4 
%Mem=4GB  
%Chk=H2O_H2O_4127.chk 

#p CCSD(T)/cc-pVTZ 

H2O_H2O_4127

0 1
O             -0.000000         -0.009833          0.000000
H             -0.799571         -0.580965          0.000000
H              0.799571         -0.580965          0.000000
O             -4.339837         -3.108767          0.000000
H             -5.207115         -3.570648          0.000000
H             -3.621653         -3.779378          0.000000

