%NProcShared=4 
%Mem=4GB  
%Chk=H2O_H2O_1117.chk 

#p CCSD(T)/cc-pVTZ 

H2O_H2O_1117

0 1
O             -0.000000         -0.009833          0.000000
H             -0.799571         -0.580965          0.000000
H              0.799571         -0.580965          0.000000
O             -2.383676         -1.700704          0.000000
H             -3.249550         -1.236195          0.000000
H             -2.542267         -2.670423          0.000000

