%NProcShared=4 
%Mem=4GB  
%Chk=H2O_H2O_1794.chk 

#p CCSD(T)/cc-pVTZ 

H2O_H2O_1794

0 1
O             -0.000000         -0.009833          0.000000
H             -0.799571         -0.580965          0.000000
H              0.799571         -0.580965          0.000000
O             -2.822348         -2.012506          0.000000
H             -3.620184         -1.438953          0.000000
H             -3.106156         -2.953229          0.000000

