%NProcShared=4 
%Mem=4GB  
%Chk=H2O_H2O_4121.chk 

#p CCSD(T)/cc-pVTZ 

H2O_H2O_4121

0 1
O             -0.000000         -0.009833          0.000000
H             -0.799571         -0.580965          0.000000
H              0.799571         -0.580965          0.000000
O             -4.331968         -3.089345          0.000000
H             -5.048115         -2.416559          0.000000
H             -4.736137         -3.984975          0.000000

