%NProcShared=4 
%Mem=4GB  
%Chk=H2O_H2O_2954.chk 

#p CCSD(T)/cc-pVTZ 

H2O_H2O_2954

0 1
O             -0.000000         -0.009833          0.000000
H             -0.799571         -0.580965          0.000000
H              0.799571         -0.580965          0.000000
O             -3.578340         -2.563680          0.000000
H             -4.498486         -2.908407          0.000000
H             -2.953833         -3.322296          0.000000

