%NProcShared=4 
%Mem=4GB  
%Chk=H2O_H2O_853.chk 

#p CCSD(T)/cc-pVTZ 

H2O_H2O_853

0 1
O             -0.000000         -0.009833          0.000000
H             -0.799571         -0.580965          0.000000
H              0.799571         -0.580965          0.000000
O             -2.214486         -1.590076          0.000000
H             -3.110116         -1.994245          0.000000
H             -1.541700         -2.306222          0.000000

