%NProcShared=4 
%Mem=4GB  
%Chk=H2O_H2O_4481.chk 

#p CCSD(T)/cc-pVTZ 

H2O_H2O_4481

0 1
O             -0.000000         -0.009833          0.000000
H             -0.799571         -0.580965          0.000000
H              0.799571         -0.580965          0.000000
O             -4.569521         -3.270395          0.000000
H             -5.526791         -3.492069          0.000000
H             -4.049376         -4.104035          0.000000

