%NProcShared=4 
%Mem=4GB  
%Chk=H2O_H2O_3376.chk 

#p CCSD(T)/cc-pVTZ 

H2O_H2O_3376

0 1
O             -0.000000         -0.009833          0.000000
H             -0.799571         -0.580965          0.000000
H              0.799571         -0.580965          0.000000
O             -3.852329         -2.761063          0.000000
H             -4.687543         -3.278677          0.000000
H             -3.091824         -3.383266          0.000000

