%NProcShared=4 
%Mem=4GB  
%Chk=H2O_H2O_1287.chk 

#p CCSD(T)/cc-pVTZ 

H2O_H2O_1287

0 1
O             -0.000000         -0.009833          0.000000
H             -0.799571         -0.580965          0.000000
H              0.799571         -0.580965          0.000000
O             -2.495412         -1.784453          0.000000
H             -3.464646         -1.622922          0.000000
H             -2.333881         -2.753687          0.000000

