%NProcShared=4 
%Mem=4GB  
%Chk=H2O_H2O_1270.chk 

#p CCSD(T)/cc-pVTZ 

H2O_H2O_1270

0 1
O             -0.000000         -0.009833          0.000000
H             -0.799571         -0.580965          0.000000
H              0.799571         -0.580965          0.000000
O             -2.481728         -1.768453          0.000000
H             -3.240343         -1.143946          0.000000
H             -2.826455         -2.688600          0.000000

