%NProcShared=4 
%Mem=4GB  
%Chk=H2O_H2O_3266.chk 

#p CCSD(T)/cc-pVTZ 

H2O_H2O_3266

0 1
O             -0.000000         -0.009833          0.000000
H             -0.799571         -0.580965          0.000000
H              0.799571         -0.580965          0.000000
O             -3.779058         -2.698206          0.000000
H             -4.673458         -2.291323          0.000000
H             -3.873887         -3.676221          0.000000

