%NProcShared=4 
%Mem=4GB  
%Chk=H2O_H2O_4718.chk 

#p CCSD(T)/cc-pVTZ 

H2O_H2O_4718

0 1
O             -0.000000         -0.009833          0.000000
H             -0.799571         -0.580965          0.000000
H              0.799571         -0.580965          0.000000
O             -4.720902         -3.369404          0.000000
H             -5.554542         -2.849259          0.000000
H             -4.942577         -4.326674          0.000000

