%NProcShared=4 
%Mem=4GB  
%Chk=H2O_H2O_3035.chk 

#p CCSD(T)/cc-pVTZ 

H2O_H2O_3035

0 1
O             -0.000000         -0.009833          0.000000
H             -0.799571         -0.580965          0.000000
H              0.799571         -0.580965          0.000000
O             -3.630468         -2.596760          0.000000
H             -4.612493         -2.563121          0.000000
H             -3.343808         -3.536618          0.000000

