%NProcShared=4 
%Mem=4GB  
%Chk=H2O_H2O_1989.chk 

#p CCSD(T)/cc-pVTZ 

H2O_H2O_1989

0 1
O             -0.000000         -0.009833          0.000000
H             -0.799571         -0.580965          0.000000
H              0.799571         -0.580965          0.000000
O             -2.950669         -2.108070          0.000000
H             -3.890527         -1.821410          0.000000
H             -2.917030         -3.090096          0.000000

