%NProcShared=4 
%Mem=4GB  
%Chk=H2O_H2O_216.chk 

#p CCSD(T)/cc-pVTZ 

H2O_H2O_216

0 1
O             -0.000000         -0.009833          0.000000
H             -0.799571         -0.580965          0.000000
H              0.799571         -0.580965          0.000000
O             -1.799132         -1.283950          0.000000
H             -2.693532         -0.877066          0.000000
H             -1.893961         -2.261965          0.000000

