%NProcShared=4 
%Mem=4GB  
%Chk=H2O_H2O_1116.chk 

#p CCSD(T)/cc-pVTZ 

H2O_H2O_1116

0 1
O             -0.000000         -0.009833          0.000000
H             -0.799571         -0.580965          0.000000
H              0.799571         -0.580965          0.000000
O             -2.383372         -1.701271          0.000000
H             -3.277773         -1.294388          0.000000
H             -2.478201         -2.679286          0.000000

