%NProcShared=4 
%Mem=4GB  
%Chk=H2O_H2O_1730.chk 

#p CCSD(T)/cc-pVTZ 

H2O_H2O_1730

0 1
O             -0.000000         -0.009833          0.000000
H             -0.799571         -0.580965          0.000000
H              0.799571         -0.580965          0.000000
O             -2.783740         -1.995472          0.000000
H             -3.724462         -2.279281          0.000000
H             -2.210186         -2.793308          0.000000

