%NProcShared=4 
%Mem=4GB  
%Chk=H2O_H2O_4690.chk 

#p CCSD(T)/cc-pVTZ 

H2O_H2O_4690

0 1
O             -0.000000         -0.009833          0.000000
H             -0.799571         -0.580965          0.000000
H              0.799571         -0.580965          0.000000
O             -4.703765         -3.359511          0.000000
H             -5.622862         -3.011996          0.000000
H             -4.734426         -4.341634          0.000000

