%NProcShared=4 
%Mem=4GB  
%Chk=H2O_H2O_3248.chk 

#p CCSD(T)/cc-pVTZ 

H2O_H2O_3248

0 1
O             -0.000000         -0.009833          0.000000
H             -0.799571         -0.580965          0.000000
H              0.799571         -0.580965          0.000000
O             -3.764125         -2.682340          0.000000
H             -4.386329         -1.921834          0.000000
H             -4.281740         -3.517553          0.000000

