%NProcShared=4 
%Mem=4GB  
%Chk=H2O_H2O_2366.chk 

#p CCSD(T)/cc-pVTZ 

H2O_H2O_2366

0 1
O             -0.000000         -0.009833          0.000000
H             -0.799571         -0.580965          0.000000
H              0.799571         -0.580965          0.000000
O             -3.194817         -2.280884          0.000000
H             -4.089218         -1.874001          0.000000
H             -3.289646         -3.258899          0.000000

