%NProcShared=4 
%Mem=4GB  
%Chk=H2O_H2O_524.chk 

#p CCSD(T)/cc-pVTZ 

H2O_H2O_524

0 1
O             -0.000000         -0.009833          0.000000
H             -0.799571         -0.580965          0.000000
H              0.799571         -0.580965          0.000000
O             -1.995196         -1.418140          0.000000
H             -2.566328         -0.618569          0.000000
H             -2.566328         -2.217711          0.000000

