%NProcShared=4 
%Mem=4GB  
%Chk=H2O_H2O_4585.chk 

#p CCSD(T)/cc-pVTZ 

H2O_H2O_4585

0 1
O             -0.000000         -0.009833          0.000000
H             -0.799571         -0.580965          0.000000
H              0.799571         -0.580965          0.000000
O             -4.636660         -3.315480          0.000000
H             -5.618685         -3.281842          0.000000
H             -4.350000         -4.255338          0.000000

