%NProcShared=4 
%Mem=4GB  
%Chk=H2O_H2O_3969.chk 

#p CCSD(T)/cc-pVTZ 

H2O_H2O_3969

0 1
O             -0.000000         -0.009833          0.000000
H             -0.799571         -0.580965          0.000000
H              0.799571         -0.580965          0.000000
O             -4.234262         -3.021033          0.000000
H             -5.032098         -2.447480          0.000000
H             -4.518071         -3.961756          0.000000

