%NProcShared=4 
%Mem=4GB  
%Chk=H2O_H2O_1186.chk 

#p CCSD(T)/cc-pVTZ 

H2O_H2O_1186

0 1
O             -0.000000         -0.009833          0.000000
H             -0.799571         -0.580965          0.000000
H              0.799571         -0.580965          0.000000
O             -2.430027         -1.738524          0.000000
H             -3.407750         -1.640730          0.000000
H             -2.205451         -2.695118          0.000000

