%NProcShared=4 
%Mem=4GB  
%Chk=H2O_H2O_1441.chk 

#p CCSD(T)/cc-pVTZ 

H2O_H2O_1441

0 1
O             -0.000000         -0.009833          0.000000
H             -0.799571         -0.580965          0.000000
H              0.799571         -0.580965          0.000000
O             -2.594348         -1.851971          0.000000
H             -3.488748         -1.445087          0.000000
H             -2.689177         -2.829986          0.000000

