%NProcShared=4 
%Mem=4GB  
%Chk=H2O_H2O_1366.chk 

#p CCSD(T)/cc-pVTZ 

H2O_H2O_1366

0 1
O             -0.000000         -0.009833          0.000000
H             -0.799571         -0.580965          0.000000
H              0.799571         -0.580965          0.000000
O             -2.545661         -1.817194          0.000000
H             -3.440062         -1.410311          0.000000
H             -2.640490         -2.795209          0.000000

