%NProcShared=4 
%Mem=4GB  
%Chk=H2O_H2O_4397.chk 

#p CCSD(T)/cc-pVTZ 

H2O_H2O_4397

0 1
O             -0.000000         -0.009833          0.000000
H             -0.799571         -0.580965          0.000000
H              0.799571         -0.580965          0.000000
O             -4.510591         -3.216225          0.000000
H             -5.181202         -2.498041          0.000000
H             -4.972472         -4.083503          0.000000

