%NProcShared=4 
%Mem=4GB  
%Chk=H2O_H2O_3582.chk 

#p CCSD(T)/cc-pVTZ 

H2O_H2O_3582

0 1
O             -0.000000         -0.009833          0.000000
H             -0.799571         -0.580965          0.000000
H              0.799571         -0.580965          0.000000
O             -3.985866         -2.852808          0.000000
H             -4.955585         -3.011399          0.000000
H             -3.521358         -3.718682          0.000000

