%NProcShared=4 
%Mem=4GB  
%Chk=H2O_H2O_3471.chk 

#p CCSD(T)/cc-pVTZ 

H2O_H2O_3471

0 1
O             -0.000000         -0.009833          0.000000
H             -0.799571         -0.580965          0.000000
H              0.799571         -0.580965          0.000000
O             -3.910017         -2.787946          0.000000
H             -4.626164         -2.115160          0.000000
H             -4.314186         -3.683576          0.000000

