%NProcShared=4 
%Mem=4GB  
%Chk=H2O_H2O_720.chk 

#p CCSD(T)/cc-pVTZ 

H2O_H2O_720

0 1
O             -0.000000         -0.009833          0.000000
H             -0.799571         -0.580965          0.000000
H              0.799571         -0.580965          0.000000
O             -2.124692         -1.513423          0.000000
H             -2.883308         -0.888916          0.000000
H             -2.469419         -2.433570          0.000000

