%NProcShared=4 
%Mem=4GB  
%Chk=H2O_H2O_1803.chk 

#p CCSD(T)/cc-pVTZ 

H2O_H2O_1803

0 1
O             -0.000000         -0.009833          0.000000
H             -0.799571         -0.580965          0.000000
H              0.799571         -0.580965          0.000000
O             -2.831184         -2.030582          0.000000
H             -3.726814         -2.434751          0.000000
H             -2.158398         -2.746729          0.000000

