%NProcShared=4 
%Mem=4GB  
%Chk=H2O_H2O_4315.chk 

#p CCSD(T)/cc-pVTZ 

H2O_H2O_4315

0 1
O             -0.000000         -0.009833          0.000000
H             -0.799571         -0.580965          0.000000
H              0.799571         -0.580965          0.000000
O             -4.460332         -3.185627          0.000000
H             -5.379429         -2.838112          0.000000
H             -4.490992         -4.167751          0.000000

