%NProcShared=4 
%Mem=4GB  
%Chk=H2O_H2O_96.chk 

#p CCSD(T)/cc-pVTZ 

H2O_H2O_96

0 1
O             -0.000000         -0.009833          0.000000
H             -0.799571         -0.580965          0.000000
H              0.799571         -0.580965          0.000000
O             -1.719116         -1.222990          0.000000
H             -2.435262         -0.550205          0.000000
H             -2.123285         -2.118620          0.000000

