%NProcShared=4 
%Mem=4GB  
%Chk=H2O_H2O_3059.chk 

#p CCSD(T)/cc-pVTZ 

H2O_H2O_3059

0 1
O             -0.000000         -0.009833          0.000000
H             -0.799571         -0.580965          0.000000
H              0.799571         -0.580965          0.000000
O             -3.646174         -2.608727          0.000000
H             -4.628297         -2.639388          0.000000
H             -3.298658         -3.527824          0.000000

