%NProcShared=4 
%Mem=4GB  
%Chk=H2O_H2O_3695.chk 

#p CCSD(T)/cc-pVTZ 

H2O_H2O_3695

0 1
O             -0.000000         -0.009833          0.000000
H             -0.799571         -0.580965          0.000000
H              0.799571         -0.580965          0.000000
O             -4.055931         -2.892903          0.000000
H             -4.814547         -2.268396          0.000000
H             -4.400658         -3.813049          0.000000

