%NProcShared=4 
%Mem=4GB  
%Chk=H2O_H2O_2540.chk 

#p CCSD(T)/cc-pVTZ 

H2O_H2O_2540

0 1
O             -0.000000         -0.009833          0.000000
H             -0.799571         -0.580965          0.000000
H              0.799571         -0.580965          0.000000
O             -3.308080         -2.362577          0.000000
H             -4.227177         -2.015061          0.000000
H             -3.338740         -3.344700          0.000000

