%NProcShared=4 
%Mem=4GB  
%Chk=H2O_H2O_2625.chk 

#p CCSD(T)/cc-pVTZ 

H2O_H2O_2625

0 1
O             -0.000000         -0.009833          0.000000
H             -0.799571         -0.580965          0.000000
H              0.799571         -0.580965          0.000000
O             -3.364819         -2.413316          0.000000
H             -4.164391         -2.984448          0.000000
H             -2.565248         -2.984448          0.000000

