%NProcShared=4 
%Mem=4GB  
%Chk=H2O_H2O_4016.chk 

#p CCSD(T)/cc-pVTZ 

H2O_H2O_4016

0 1
O             -0.000000         -0.009833          0.000000
H             -0.799571         -0.580965          0.000000
H              0.799571         -0.580965          0.000000
O             -4.265925         -3.045974          0.000000
H             -5.160325         -2.639091          0.000000
H             -4.360754         -4.023989          0.000000

