%NProcShared=4 
%Mem=4GB  
%Chk=H2O_H2O_3354.chk 

#p CCSD(T)/cc-pVTZ 

H2O_H2O_3354

0 1
O             -0.000000         -0.009833          0.000000
H             -0.799571         -0.580965          0.000000
H              0.799571         -0.580965          0.000000
O             -3.838002         -2.749156          0.000000
H             -4.758149         -3.093883          0.000000
H             -3.213496         -3.507772          0.000000

