%NProcShared=4 
%Mem=4GB  
%Chk=H2O_H2O_273.chk 

#p CCSD(T)/cc-pVTZ 

H2O_H2O_273

0 1
O             -0.000000         -0.009833          0.000000
H             -0.799571         -0.580965          0.000000
H              0.799571         -0.580965          0.000000
O             -1.832886         -1.302861          0.000000
H             -2.455090         -0.542355          0.000000
H             -2.350501         -2.138074          0.000000

