%NProcShared=4 
%Mem=4GB  
%Chk=H2O_H2O_2216.chk 

#p CCSD(T)/cc-pVTZ 

H2O_H2O_2216

0 1
O             -0.000000         -0.009833          0.000000
H             -0.799571         -0.580965          0.000000
H              0.799571         -0.580965          0.000000
O             -3.097444         -2.211331          0.000000
H             -3.991844         -1.804448          0.000000
H             -3.192273         -3.189346          0.000000

