%NProcShared=4 
%Mem=4GB  
%Chk=H2O_H2O_2962.chk 

#p CCSD(T)/cc-pVTZ 

H2O_H2O_2962

0 1
O             -0.000000         -0.009833          0.000000
H             -0.799571         -0.580965          0.000000
H              0.799571         -0.580965          0.000000
O             -3.582748         -2.561135          0.000000
H             -4.551982         -2.399604          0.000000
H             -3.421217         -3.530369          0.000000

