%NProcShared=4 
%Mem=4GB  
%Chk=H2O_H2O_3734.chk 

#p CCSD(T)/cc-pVTZ 

H2O_H2O_3734

0 1
O             -0.000000         -0.009833          0.000000
H             -0.799571         -0.580965          0.000000
H              0.799571         -0.580965          0.000000
O             -4.084354         -2.921718          0.000000
H             -5.066477         -2.952379          0.000000
H             -3.736838         -3.840815          0.000000

