%NProcShared=4 
%Mem=4GB  
%Chk=H2O_H2O_579.chk 

#p CCSD(T)/cc-pVTZ 

H2O_H2O_579

0 1
O             -0.000000         -0.009833          0.000000
H             -0.799571         -0.580965          0.000000
H              0.799571         -0.580965          0.000000
O             -2.036595         -1.462415          0.000000
H             -2.956741         -1.807142          0.000000
H             -1.412088         -2.221030          0.000000

