%NProcShared=4 
%Mem=4GB  
%Chk=H2O_H2O_2258.chk 

#p CCSD(T)/cc-pVTZ 

H2O_H2O_2258

0 1
O             -0.000000         -0.009833          0.000000
H             -0.799571         -0.580965          0.000000
H              0.799571         -0.580965          0.000000
O             -3.126302         -2.238114          0.000000
H             -4.104318         -2.332943          0.000000
H             -2.719419         -3.132515          0.000000

