%NProcShared=4 
%Mem=4GB  
%Chk=H2O_H2O_3380.chk 

#p CCSD(T)/cc-pVTZ 

H2O_H2O_3380

0 1
O             -0.000000         -0.009833          0.000000
H             -0.799571         -0.580965          0.000000
H              0.799571         -0.580965          0.000000
O             -3.854847         -2.760562          0.000000
H             -4.795570         -3.044370          0.000000
H             -3.281293         -3.558398          0.000000

