%NProcShared=4 
%Mem=4GB  
%Chk=H2O_H2O_1068.chk 

#p CCSD(T)/cc-pVTZ 

H2O_H2O_1068

0 1
O             -0.000000         -0.009833          0.000000
H             -0.799571         -0.580965          0.000000
H              0.799571         -0.580965          0.000000
O             -2.351483         -1.676933          0.000000
H             -3.185123         -1.156788          0.000000
H             -2.573158         -2.634203          0.000000

