%NProcShared=4 
%Mem=4GB  
%Chk=H2O_H2O_4943.chk 

#p CCSD(T)/cc-pVTZ 

H2O_H2O_4943

0 1
O             -0.000000         -0.009833          0.000000
H             -0.799571         -0.580965          0.000000
H              0.799571         -0.580965          0.000000
O             -4.866962         -3.473734          0.000000
H             -5.700602         -2.953589          0.000000
H             -5.088637         -4.431004          0.000000

