%NProcShared=4 
%Mem=4GB  
%Chk=H2O_H2O_990.chk 

#p CCSD(T)/cc-pVTZ 

H2O_H2O_990

0 1
O             -0.000000         -0.009833          0.000000
H             -0.799571         -0.580965          0.000000
H              0.799571         -0.580965          0.000000
O             -2.301888         -1.643856          0.000000
H             -3.220985         -1.296341          0.000000
H             -2.332549         -2.625979          0.000000

