%NProcShared=4 
%Mem=4GB  
%Chk=H2O_H2O_4907.chk 

#p CCSD(T)/cc-pVTZ 

H2O_H2O_4907

0 1
O             -0.000000         -0.009833          0.000000
H             -0.799571         -0.580965          0.000000
H              0.799571         -0.580965          0.000000
O             -4.845998         -3.467198          0.000000
H             -5.815717         -3.625789          0.000000
H             -4.381489         -4.333072          0.000000

