%NProcShared=4 
%Mem=4GB  
%Chk=H2O_H2O_2533.chk 

#p CCSD(T)/cc-pVTZ 

H2O_H2O_2533

0 1
O             -0.000000         -0.009833          0.000000
H             -0.799571         -0.580965          0.000000
H              0.799571         -0.580965          0.000000
O             -3.304820         -2.365629          0.000000
H             -4.282835         -2.460458          0.000000
H             -2.897937         -3.260030          0.000000

