%NProcShared=4 
%Mem=4GB  
%Chk=H2O_H2O_1881.chk 

#p CCSD(T)/cc-pVTZ 

H2O_H2O_1881

0 1
O             -0.000000         -0.009833          0.000000
H             -0.799571         -0.580965          0.000000
H              0.799571         -0.580965          0.000000
O             -2.881715         -2.064799          0.000000
H             -3.838986         -2.286474          0.000000
H             -2.361571         -2.898439          0.000000

