%NProcShared=4 
%Mem=4GB  
%Chk=H2O_H2O_1142.chk 

#p CCSD(T)/cc-pVTZ 

H2O_H2O_1142

0 1
O             -0.000000         -0.009833          0.000000
H             -0.799571         -0.580965          0.000000
H              0.799571         -0.580965          0.000000
O             -2.399904         -1.712296          0.000000
H             -3.265779         -1.247787          0.000000
H             -2.558496         -2.682015          0.000000

