%NProcShared=4 
%Mem=4GB  
%Chk=H2O_H2O_1599.chk 

#p CCSD(T)/cc-pVTZ 

H2O_H2O_1599

0 1
O             -0.000000         -0.009833          0.000000
H             -0.799571         -0.580965          0.000000
H              0.799571         -0.580965          0.000000
O             -2.693039         -1.916608          0.000000
H             -3.264171         -1.117036          0.000000
H             -3.264171         -2.716179          0.000000

