%NProcShared=4 
%Mem=4GB  
%Chk=H2O_H2O_1166.chk 

#p CCSD(T)/cc-pVTZ 

H2O_H2O_1166

0 1
O             -0.000000         -0.009833          0.000000
H             -0.799571         -0.580965          0.000000
H              0.799571         -0.580965          0.000000
O             -2.415830         -1.724456          0.000000
H             -3.310231         -1.317572          0.000000
H             -2.510659         -2.702471          0.000000

