%NProcShared=4 
%Mem=4GB  
%Chk=H2O_H2O_3529.chk 

#p CCSD(T)/cc-pVTZ 

H2O_H2O_3529

0 1
O             -0.000000         -0.009833          0.000000
H             -0.799571         -0.580965          0.000000
H              0.799571         -0.580965          0.000000
O             -3.951605         -2.830302          0.000000
H             -4.871751         -3.175029          0.000000
H             -3.327098         -3.588918          0.000000

