%NProcShared=4 
%Mem=4GB  
%Chk=H2O_H2O_1238.chk 

#p CCSD(T)/cc-pVTZ 

H2O_H2O_1238

0 1
O             -0.000000         -0.009833          0.000000
H             -0.799571         -0.580965          0.000000
H              0.799571         -0.580965          0.000000
O             -2.463394         -1.760799          0.000000
H             -3.419988         -1.536223          0.000000
H             -2.365600         -2.738522          0.000000

