%NProcShared=4 
%Mem=4GB  
%Chk=H2O_H2O_764.chk 

#p CCSD(T)/cc-pVTZ 

H2O_H2O_764

0 1
O             -0.000000         -0.009833          0.000000
H             -0.799571         -0.580965          0.000000
H              0.799571         -0.580965          0.000000
O             -2.155453         -1.540049          0.000000
H             -3.095311         -1.253389          0.000000
H             -2.121814         -2.522075          0.000000

