%NProcShared=4 
%Mem=4GB  
%Chk=H2O_H2O_4008.chk 

#p CCSD(T)/cc-pVTZ 

H2O_H2O_4008

0 1
O             -0.000000         -0.009833          0.000000
H             -0.799571         -0.580965          0.000000
H              0.799571         -0.580965          0.000000
O             -4.262325         -3.049573          0.000000
H             -5.240341         -3.144402          0.000000
H             -3.855442         -3.943973          0.000000

