%NProcShared=4 
%Mem=4GB  
%Chk=H2O_H2O_4621.chk 

#p CCSD(T)/cc-pVTZ 

H2O_H2O_4621

0 1
O             -0.000000         -0.009833          0.000000
H             -0.799571         -0.580965          0.000000
H              0.799571         -0.580965          0.000000
O             -4.656547         -3.321190          0.000000
H             -5.372693         -2.648404          0.000000
H             -5.060716         -4.216820          0.000000

