%NProcShared=4 
%Mem=4GB  
%Chk=H2O_H2O_2919.chk 

#p CCSD(T)/cc-pVTZ 

H2O_H2O_2919

0 1
O             -0.000000         -0.009833          0.000000
H             -0.799571         -0.580965          0.000000
H              0.799571         -0.580965          0.000000
O             -3.552648         -2.534158          0.000000
H             -4.350484         -1.960604          0.000000
H             -3.836457         -3.474881          0.000000

