%NProcShared=4 
%Mem=4GB  
%Chk=H2O_H2O_2751.chk 

#p CCSD(T)/cc-pVTZ 

H2O_H2O_2751

0 1
O             -0.000000         -0.009833          0.000000
H             -0.799571         -0.580965          0.000000
H              0.799571         -0.580965          0.000000
O             -3.446607         -2.471256          0.000000
H             -4.281820         -2.988871          0.000000
H             -2.686101         -3.093460          0.000000

