%NProcShared=4 
%Mem=4GB  
%Chk=H2O_H2O_1607.chk 

#p CCSD(T)/cc-pVTZ 

H2O_H2O_1607

0 1
O             -0.000000         -0.009833          0.000000
H             -0.799571         -0.580965          0.000000
H              0.799571         -0.580965          0.000000
O             -2.703784         -1.937019          0.000000
H             -3.673503         -2.095610          0.000000
H             -2.239275         -2.802893          0.000000

