%NProcShared=4 
%Mem=4GB  
%Chk=H2O_H2O_1519.chk 

#p CCSD(T)/cc-pVTZ 

H2O_H2O_1519

0 1
O             -0.000000         -0.009833          0.000000
H             -0.799571         -0.580965          0.000000
H              0.799571         -0.580965          0.000000
O             -2.643830         -1.884992          0.000000
H             -3.441666         -1.311438          0.000000
H             -2.927638         -2.825714          0.000000

