%NProcShared=4 
%Mem=4GB  
%Chk=H2O_H2O_4185.chk 

#p CCSD(T)/cc-pVTZ 

H2O_H2O_4185

0 1
O             -0.000000         -0.009833          0.000000
H             -0.799571         -0.580965          0.000000
H              0.799571         -0.580965          0.000000
O             -4.376997         -3.130004          0.000000
H             -5.359023         -3.096366          0.000000
H             -4.090337         -4.069862          0.000000

