%NProcShared=4 
%Mem=4GB  
%Chk=H2O_H2O_689.chk 

#p CCSD(T)/cc-pVTZ 

H2O_H2O_689

0 1
O             -0.000000         -0.009833          0.000000
H             -0.799571         -0.580965          0.000000
H              0.799571         -0.580965          0.000000
O             -2.106766         -1.505272          0.000000
H             -3.046624         -1.218612          0.000000
H             -2.073128         -2.487298          0.000000

