%NProcShared=4 
%Mem=4GB  
%Chk=H2O_H2O_2704.chk 

#p CCSD(T)/cc-pVTZ 

H2O_H2O_2704

0 1
O             -0.000000         -0.009833          0.000000
H             -0.799571         -0.580965          0.000000
H              0.799571         -0.580965          0.000000
O             -3.416051         -2.447758          0.000000
H             -4.336198         -2.792484          0.000000
H             -2.791544         -3.206373          0.000000

