%NProcShared=4 
%Mem=4GB  
%Chk=H2O_H2O_2082.chk 

#p CCSD(T)/cc-pVTZ 

H2O_H2O_2082

0 1
O             -0.000000         -0.009833          0.000000
H             -0.799571         -0.580965          0.000000
H              0.799571         -0.580965          0.000000
O             -3.012133         -2.157272          0.000000
H             -3.981852         -2.315863          0.000000
H             -2.547624         -3.023146          0.000000

