%NProcShared=4 
%Mem=4GB  
%Chk=H2O_H2O_4135.chk 

#p CCSD(T)/cc-pVTZ 

H2O_H2O_4135

0 1
O             -0.000000         -0.009833          0.000000
H             -0.799571         -0.580965          0.000000
H              0.799571         -0.580965          0.000000
O             -4.344539         -3.106820          0.000000
H             -5.326565         -3.073181          0.000000
H             -4.057880         -4.046677          0.000000

