%NProcShared=4 
%Mem=4GB  
%Chk=H2O_H2O_3782.chk 

#p CCSD(T)/cc-pVTZ 

H2O_H2O_3782

0 1
O             -0.000000         -0.009833          0.000000
H             -0.799571         -0.580965          0.000000
H              0.799571         -0.580965          0.000000
O             -4.115698         -2.945546          0.000000
H             -5.085417         -3.104137          0.000000
H             -3.651189         -3.811420          0.000000

