%NProcShared=4 
%Mem=4GB  
%Chk=H2O_H2O_4686.chk 

#p CCSD(T)/cc-pVTZ 

H2O_H2O_4686

0 1
O             -0.000000         -0.009833          0.000000
H             -0.799571         -0.580965          0.000000
H              0.799571         -0.580965          0.000000
O             -4.702072         -3.361441          0.000000
H             -5.679795         -3.263647          0.000000
H             -4.477496         -4.318035          0.000000

