%NProcShared=4 
%Mem=4GB  
%Chk=H2O_H2O_852.chk 

#p CCSD(T)/cc-pVTZ 

H2O_H2O_852

0 1
O             -0.000000         -0.009833          0.000000
H             -0.799571         -0.580965          0.000000
H              0.799571         -0.580965          0.000000
O             -2.213851         -1.590181          0.000000
H             -3.081130         -2.052062          0.000000
H             -1.495668         -2.260792          0.000000

