%NProcShared=4 
%Mem=4GB  
%Chk=H2O_H2O_4440.chk 

#p CCSD(T)/cc-pVTZ 

H2O_H2O_4440

0 1
O             -0.000000         -0.009833          0.000000
H             -0.799571         -0.580965          0.000000
H              0.799571         -0.580965          0.000000
O             -4.541476         -3.243589          0.000000
H             -5.460573         -2.896073          0.000000
H             -4.572137         -4.225712          0.000000

