%NProcShared=4 
%Mem=4GB  
%Chk=H2O_H2O_3494.chk 

#p CCSD(T)/cc-pVTZ 

H2O_H2O_3494

0 1
O             -0.000000         -0.009833          0.000000
H             -0.799571         -0.580965          0.000000
H              0.799571         -0.580965          0.000000
O             -3.925913         -2.800780          0.000000
H             -4.723749         -2.227227          0.000000
H             -4.209721         -3.741503          0.000000

