%NProcShared=4 
%Mem=4GB  
%Chk=H2O_H2O_3678.chk 

#p CCSD(T)/cc-pVTZ 

H2O_H2O_3678

0 1
O             -0.000000         -0.009833          0.000000
H             -0.799571         -0.580965          0.000000
H              0.799571         -0.580965          0.000000
O             -4.048351         -2.900002          0.000000
H             -4.943982         -3.304171          0.000000
H             -3.375566         -3.616148          0.000000

