%NProcShared=4 
%Mem=4GB  
%Chk=H2O_H2O_2109.chk 

#p CCSD(T)/cc-pVTZ 

H2O_H2O_2109

0 1
O             -0.000000         -0.009833          0.000000
H             -0.799571         -0.580965          0.000000
H              0.799571         -0.580965          0.000000
O             -3.029475         -2.168221          0.000000
H             -4.011599         -2.198882          0.000000
H             -2.681960         -3.087318          0.000000

