%NProcShared=4 
%Mem=4GB  
%Chk=H2O_H2O_1839.chk 

#p CCSD(T)/cc-pVTZ 

H2O_H2O_1839

0 1
O             -0.000000         -0.009833          0.000000
H             -0.799571         -0.580965          0.000000
H              0.799571         -0.580965          0.000000
O             -2.853296         -2.038516          0.000000
H             -3.793153         -1.751857          0.000000
H             -2.819657         -3.020542          0.000000

