%NProcShared=4 
%Mem=4GB  
%Chk=H2O_H2O_2206.chk 

#p CCSD(T)/cc-pVTZ 

H2O_H2O_2206

0 1
O             -0.000000         -0.009833          0.000000
H             -0.799571         -0.580965          0.000000
H              0.799571         -0.580965          0.000000
O             -3.092691         -2.215499          0.000000
H             -4.049961         -2.437173          0.000000
H             -2.572546         -3.049139          0.000000

