%NProcShared=4 
%Mem=4GB  
%Chk=H2O_H2O_3783.chk 

#p CCSD(T)/cc-pVTZ 

H2O_H2O_3783

0 1
O             -0.000000         -0.009833          0.000000
H             -0.799571         -0.580965          0.000000
H              0.799571         -0.580965          0.000000
O             -4.116265         -2.945242          0.000000
H             -5.094280         -3.040072          0.000000
H             -3.709382         -3.839643          0.000000

