%NProcShared=4 
%Mem=4GB  
%Chk=H2O_H2O_3788.chk 

#p CCSD(T)/cc-pVTZ 

H2O_H2O_3788

0 1
O             -0.000000         -0.009833          0.000000
H             -0.799571         -0.580965          0.000000
H              0.799571         -0.580965          0.000000
O             -4.118742         -2.943210          0.000000
H             -5.075335         -2.718634          0.000000
H             -4.020947         -3.920933          0.000000

