%NProcShared=4 
%Mem=4GB  
%Chk=H2O_H2O_1639.chk 

#p CCSD(T)/cc-pVTZ 

H2O_H2O_1639

0 1
O             -0.000000         -0.009833          0.000000
H             -0.799571         -0.580965          0.000000
H              0.799571         -0.580965          0.000000
O             -2.723464         -1.945778          0.000000
H             -3.663322         -1.659119          0.000000
H             -2.689826         -2.927804          0.000000

