%NProcShared=4 
%Mem=4GB  
%Chk=H2O_H2O_2.chk 

#p CCSD(T)/cc-pVTZ 

H2O_H2O_2

0 1
O             -0.000000         -0.009833          0.000000
H             -0.799571         -0.580965          0.000000
H              0.799571         -0.580965          0.000000
O             -1.662068         -1.196044          0.000000
H             -2.529347         -1.657925          0.000000
H             -0.943885         -1.866655          0.000000

