%NProcShared=4 
%Mem=4GB  
%Chk=H2O_H2O_2989.chk 

#p CCSD(T)/cc-pVTZ 

H2O_H2O_2989

0 1
O             -0.000000         -0.009833          0.000000
H             -0.799571         -0.580965          0.000000
H              0.799571         -0.580965          0.000000
O             -3.599825         -2.571760          0.000000
H             -4.539683         -2.285101          0.000000
H             -3.566186         -3.553786          0.000000

