%NProcShared=4 
%Mem=4GB  
%Chk=H2O_H2O_4183.chk 

#p CCSD(T)/cc-pVTZ 

H2O_H2O_4183

0 1
O             -0.000000         -0.009833          0.000000
H             -0.799571         -0.580965          0.000000
H              0.799571         -0.580965          0.000000
O             -4.375928         -3.130719          0.000000
H             -5.353943         -3.225548          0.000000
H             -3.969044         -4.025119          0.000000

