%NProcShared=4 
%Mem=4GB  
%Chk=H2O_H2O_2899.chk 

#p CCSD(T)/cc-pVTZ 

H2O_H2O_2899

0 1
O             -0.000000         -0.009833          0.000000
H             -0.799571         -0.580965          0.000000
H              0.799571         -0.580965          0.000000
O             -3.536941         -2.519405          0.000000
H             -4.108073         -1.719834          0.000000
H             -4.108073         -3.318977          0.000000

