%NProcShared=4 
%Mem=4GB  
%Chk=H2O_H2O_2037.chk 

#p CCSD(T)/cc-pVTZ 

H2O_H2O_2037

0 1
O             -0.000000         -0.009833          0.000000
H             -0.799571         -0.580965          0.000000
H              0.799571         -0.580965          0.000000
O             -2.982279         -2.132221          0.000000
H             -3.951512         -1.970690          0.000000
H             -2.820748         -3.101455          0.000000

