%NProcShared=4 
%Mem=4GB  
%Chk=H2O_H2O_2723.chk 

#p CCSD(T)/cc-pVTZ 

H2O_H2O_2723

0 1
O             -0.000000         -0.009833          0.000000
H             -0.799571         -0.580965          0.000000
H              0.799571         -0.580965          0.000000
O             -3.423318         -2.438903          0.000000
H             -4.045522         -1.678397          0.000000
H             -3.940933         -3.274116          0.000000

