%NProcShared=4 
%Mem=4GB  
%Chk=H2O_H2O_358.chk 

#p CCSD(T)/cc-pVTZ 

H2O_H2O_358

0 1
O             -0.000000         -0.009833          0.000000
H             -0.799571         -0.580965          0.000000
H              0.799571         -0.580965          0.000000
O             -1.892906         -1.357102          0.000000
H             -2.870921         -1.451931          0.000000
H             -1.486023         -2.251503          0.000000

