%NProcShared=4 
%Mem=4GB  
%Chk=H2O_H2O_888.chk 

#p CCSD(T)/cc-pVTZ 

H2O_H2O_888

0 1
O             -0.000000         -0.009833          0.000000
H             -0.799571         -0.580965          0.000000
H              0.799571         -0.580965          0.000000
O             -2.236189         -1.598508          0.000000
H             -3.192783         -1.373931          0.000000
H             -2.138395         -2.576231          0.000000

