%NProcShared=4 
%Mem=4GB  
%Chk=H2O_H2O_1143.chk 

#p CCSD(T)/cc-pVTZ 

H2O_H2O_1143

0 1
O             -0.000000         -0.009833          0.000000
H             -0.799571         -0.580965          0.000000
H              0.799571         -0.580965          0.000000
O             -2.400170         -1.711710          0.000000
H             -3.233810         -1.191565          0.000000
H             -2.621844         -2.668980          0.000000

