%NProcShared=4 
%Mem=4GB  
%Chk=H2O_H2O_3746.chk 

#p CCSD(T)/cc-pVTZ 

H2O_H2O_3746

0 1
O             -0.000000         -0.009833          0.000000
H             -0.799571         -0.580965          0.000000
H              0.799571         -0.580965          0.000000
O             -4.088535         -2.915461          0.000000
H             -4.804681         -2.242675          0.000000
H             -4.492704         -3.811091          0.000000

