%NProcShared=4 
%Mem=4GB  
%Chk=H2O_H2O_1969.chk 

#p CCSD(T)/cc-pVTZ 

H2O_H2O_1969

0 1
O             -0.000000         -0.009833          0.000000
H             -0.799571         -0.580965          0.000000
H              0.799571         -0.580965          0.000000
O             -2.935950         -2.093652          0.000000
H             -3.733786         -1.520098          0.000000
H             -3.219759         -3.034375          0.000000

