%NProcShared=4 
%Mem=4GB  
%Chk=H2O_H2O_3186.chk 

#p CCSD(T)/cc-pVTZ 

H2O_H2O_3186

0 1
O             -0.000000         -0.009833          0.000000
H             -0.799571         -0.580965          0.000000
H              0.799571         -0.580965          0.000000
O             -3.728338         -2.665905          0.000000
H             -4.706062         -2.568111          0.000000
H             -3.503762         -3.622499          0.000000

