%NProcShared=4 
%Mem=4GB  
%Chk=H2O_H2O_4801.chk 

#p CCSD(T)/cc-pVTZ 

H2O_H2O_4801

0 1
O             -0.000000         -0.009833          0.000000
H             -0.799571         -0.580965          0.000000
H              0.799571         -0.580965          0.000000
O             -4.777377         -3.421822          0.000000
H             -5.612590         -3.939436          0.000000
H             -4.016871         -4.044025          0.000000

