%NProcShared=4 
%Mem=4GB  
%Chk=H2O_H2O_2607.chk 

#p CCSD(T)/cc-pVTZ 

H2O_H2O_2607

0 1
O             -0.000000         -0.009833          0.000000
H             -0.799571         -0.580965          0.000000
H              0.799571         -0.580965          0.000000
O             -3.352939         -2.400709          0.000000
H             -4.322658         -2.559301          0.000000
H             -2.888431         -3.266583          0.000000

