%NProcShared=4 
%Mem=4GB  
%Chk=H2O_H2O_3601.chk 

#p CCSD(T)/cc-pVTZ 

H2O_H2O_3601

0 1
O             -0.000000         -0.009833          0.000000
H             -0.799571         -0.580965          0.000000
H              0.799571         -0.580965          0.000000
O             -3.998389         -2.865393          0.000000
H             -4.833603         -3.383008          0.000000
H             -3.237884         -3.487597          0.000000

