%NProcShared=4 
%Mem=4GB  
%Chk=H2O_H2O_4853.chk 

#p CCSD(T)/cc-pVTZ 

H2O_H2O_4853

0 1
O             -0.000000         -0.009833          0.000000
H             -0.799571         -0.580965          0.000000
H              0.799571         -0.580965          0.000000
O             -4.811110         -3.444838          0.000000
H             -5.706740         -3.849008          0.000000
H             -4.138324         -4.160985          0.000000

