%NProcShared=4 
%Mem=4GB  
%Chk=H2O_H2O_2932.chk 

#p CCSD(T)/cc-pVTZ 

H2O_H2O_2932

0 1
O             -0.000000         -0.009833          0.000000
H             -0.799571         -0.580965          0.000000
H              0.799571         -0.580965          0.000000
O             -3.563915         -2.551409          0.000000
H             -4.533634         -2.710000          0.000000
H             -3.099407         -3.417283          0.000000

