%NProcShared=4 
%Mem=4GB  
%Chk=H2O_H2O_3094.chk 

#p CCSD(T)/cc-pVTZ 

H2O_H2O_3094

0 1
O             -0.000000         -0.009833          0.000000
H             -0.799571         -0.580965          0.000000
H              0.799571         -0.580965          0.000000
O             -3.666251         -2.615304          0.000000
H             -4.464087         -2.041750          0.000000
H             -3.950059         -3.556027          0.000000

