%NProcShared=4 
%Mem=4GB  
%Chk=H2O_H2O_4101.chk 

#p CCSD(T)/cc-pVTZ 

H2O_H2O_4101

0 1
O             -0.000000         -0.009833          0.000000
H             -0.799571         -0.580965          0.000000
H              0.799571         -0.580965          0.000000
O             -4.322967         -3.097238          0.000000
H             -5.158181         -3.614853          0.000000
H             -3.562462         -3.719442          0.000000

