%NProcShared=4 
%Mem=4GB  
%Chk=H2O_H2O_3873.chk 

#p CCSD(T)/cc-pVTZ 

H2O_H2O_3873

0 1
O             -0.000000         -0.009833          0.000000
H             -0.799571         -0.580965          0.000000
H              0.799571         -0.580965          0.000000
O             -4.169847         -2.972147          0.000000
H             -4.792051         -2.211641          0.000000
H             -4.687462         -3.807360          0.000000

