%NProcShared=4 
%Mem=4GB  
%Chk=H2O_H2O_4997.chk 

#p CCSD(T)/cc-pVTZ 

H2O_H2O_4997

0 1
O             -0.000000         -0.009833          0.000000
H             -0.799571         -0.580965          0.000000
H              0.799571         -0.580965          0.000000
O             -4.900085         -3.494439          0.000000
H             -5.570696         -2.776256          0.000000
H             -5.361965         -4.361718          0.000000

