%NProcShared=4 
%Mem=4GB  
%Chk=H2O_H2O_2602.chk 

#p CCSD(T)/cc-pVTZ 

H2O_H2O_2602

0 1
O             -0.000000         -0.009833          0.000000
H             -0.799571         -0.580965          0.000000
H              0.799571         -0.580965          0.000000
O             -3.349874         -2.401639          0.000000
H             -4.217152         -2.863520          0.000000
H             -2.631690         -3.072250          0.000000

