%NProcShared=4 
%Mem=4GB  
%Chk=H2O_H2O_4677.chk 

#p CCSD(T)/cc-pVTZ 

H2O_H2O_4677

0 1
O             -0.000000         -0.009833          0.000000
H             -0.799571         -0.580965          0.000000
H              0.799571         -0.580965          0.000000
O             -4.696872         -3.363797          0.000000
H             -5.564151         -3.825678          0.000000
H             -3.978689         -4.034408          0.000000

