%NProcShared=4 
%Mem=4GB  
%Chk=H2O_H2O_2693.chk 

#p CCSD(T)/cc-pVTZ 

H2O_H2O_2693

0 1
O             -0.000000         -0.009833          0.000000
H             -0.799571         -0.580965          0.000000
H              0.799571         -0.580965          0.000000
O             -3.406362         -2.430430          0.000000
H             -4.240002         -1.910285          0.000000
H             -3.628036         -3.387701          0.000000

