%NProcShared=4 
%Mem=4GB  
%Chk=H2O_H2O_4268.chk 

#p CCSD(T)/cc-pVTZ 

H2O_H2O_4268

0 1
O             -0.000000         -0.009833          0.000000
H             -0.799571         -0.580965          0.000000
H              0.799571         -0.580965          0.000000
O             -4.428782         -3.160743          0.000000
H             -5.262422         -2.640598          0.000000
H             -4.650457         -4.118013          0.000000

