%NProcShared=4 
%Mem=4GB  
%Chk=H2O_H2O_4836.chk 

#p CCSD(T)/cc-pVTZ 

H2O_H2O_4836

0 1
O             -0.000000         -0.009833          0.000000
H             -0.799571         -0.580965          0.000000
H              0.799571         -0.580965          0.000000
O             -4.799446         -3.430995          0.000000
H             -5.777169         -3.333201          0.000000
H             -4.574870         -4.387589          0.000000

