%NProcShared=4 
%Mem=4GB  
%Chk=H2O_H2O_917.chk 

#p CCSD(T)/cc-pVTZ 

H2O_H2O_917

0 1
O             -0.000000         -0.009833          0.000000
H             -0.799571         -0.580965          0.000000
H              0.799571         -0.580965          0.000000
O             -2.253844         -1.607965          0.000000
H             -3.119719         -1.143457          0.000000
H             -2.412436         -2.577684          0.000000

