%NProcShared=4 
%Mem=4GB  
%Chk=H2O_H2O_1602.chk 

#p CCSD(T)/cc-pVTZ 

H2O_H2O_1602

0 1
O             -0.000000         -0.009833          0.000000
H             -0.799571         -0.580965          0.000000
H              0.799571         -0.580965          0.000000
O             -2.700718         -1.937949          0.000000
H             -3.567997         -2.399830          0.000000
H             -1.982535         -2.608560          0.000000

