%NProcShared=4 
%Mem=4GB  
%Chk=H2O_H2O_4805.chk 

#p CCSD(T)/cc-pVTZ 

H2O_H2O_4805

0 1
O             -0.000000         -0.009833          0.000000
H             -0.799571         -0.580965          0.000000
H              0.799571         -0.580965          0.000000
O             -4.779894         -3.421321          0.000000
H             -5.720617         -3.705129          0.000000
H             -4.206340         -4.219157          0.000000

