%NProcShared=4 
%Mem=4GB  
%Chk=H2O_H2O_706.chk 

#p CCSD(T)/cc-pVTZ 

H2O_H2O_706

0 1
O             -0.000000         -0.009833          0.000000
H             -0.799571         -0.580965          0.000000
H              0.799571         -0.580965          0.000000
O             -2.118957         -1.519963          0.000000
H             -3.076227         -1.741637          0.000000
H             -1.598812         -2.353603          0.000000

