%NProcShared=4 
%Mem=4GB  
%Chk=H2O_H2O_2005.chk 

#p CCSD(T)/cc-pVTZ 

H2O_H2O_2005

0 1
O             -0.000000         -0.009833          0.000000
H             -0.799571         -0.580965          0.000000
H              0.799571         -0.580965          0.000000
O             -2.962258         -2.122987          0.000000
H             -3.902980         -2.406796          0.000000
H             -2.388704         -2.920823          0.000000

