%NProcShared=4 
%Mem=4GB  
%Chk=H2O_H2O_2812.chk 

#p CCSD(T)/cc-pVTZ 

H2O_H2O_2812

0 1
O             -0.000000         -0.009833          0.000000
H             -0.799571         -0.580965          0.000000
H              0.799571         -0.580965          0.000000
O             -3.485375         -2.491582          0.000000
H             -4.454608         -2.330050          0.000000
H             -3.323844         -3.460815          0.000000

