%NProcShared=4 
%Mem=4GB  
%Chk=H2O_H2O_450.chk 

#p CCSD(T)/cc-pVTZ 

H2O_H2O_450

0 1
O             -0.000000         -0.009833          0.000000
H             -0.799571         -0.580965          0.000000
H              0.799571         -0.580965          0.000000
O             -1.952905         -1.404789          0.000000
H             -2.752477         -1.975921          0.000000
H             -1.153334         -1.975921          0.000000

