%NProcShared=4 
%Mem=4GB  
%Chk=H2O_H2O_4931.chk 

#p CCSD(T)/cc-pVTZ 

H2O_H2O_4931

0 1
O             -0.000000         -0.009833          0.000000
H             -0.799571         -0.580965          0.000000
H              0.799571         -0.580965          0.000000
O             -4.861641         -3.479056          0.000000
H             -5.818911         -3.700730          0.000000
H             -4.341496         -4.312696          0.000000

