%NProcShared=4 
%Mem=4GB  
%Chk=H2O_H2O_3222.chk 

#p CCSD(T)/cc-pVTZ 

H2O_H2O_3222

0 1
O             -0.000000         -0.009833          0.000000
H             -0.799571         -0.580965          0.000000
H              0.799571         -0.580965          0.000000
O             -3.747833         -2.671388          0.000000
H             -4.418444         -1.953205          0.000000
H             -4.209714         -3.538667          0.000000

