%NProcShared=4 
%Mem=4GB  
%Chk=H2O_H2O_4033.chk 

#p CCSD(T)/cc-pVTZ 

H2O_H2O_4033

0 1
O             -0.000000         -0.009833          0.000000
H             -0.799571         -0.580965          0.000000
H              0.799571         -0.580965          0.000000
O             -4.278554         -3.061165          0.000000
H             -5.256569         -3.155994          0.000000
H             -3.871671         -3.955566          0.000000

