%NProcShared=4 
%Mem=4GB  
%Chk=H2O_H2O_3587.chk 

#p CCSD(T)/cc-pVTZ 

H2O_H2O_3587

0 1
O             -0.000000         -0.009833          0.000000
H             -0.799571         -0.580965          0.000000
H              0.799571         -0.580965          0.000000
O             -3.988470         -2.850942          0.000000
H             -4.957704         -2.689411          0.000000
H             -3.826939         -3.820175          0.000000

