%NProcShared=4 
%Mem=4GB  
%Chk=H2O_H2O_2123.chk 

#p CCSD(T)/cc-pVTZ 

H2O_H2O_2123

0 1
O             -0.000000         -0.009833          0.000000
H             -0.799571         -0.580965          0.000000
H              0.799571         -0.580965          0.000000
O             -3.033825         -2.160688          0.000000
H             -3.656028         -1.400182          0.000000
H             -3.551439         -2.995901          0.000000

