%NProcShared=4 
%Mem=4GB  
%Chk=H2O_H2O_4981.chk 

#p CCSD(T)/cc-pVTZ 

H2O_H2O_4981

0 1
O             -0.000000         -0.009833          0.000000
H             -0.799571         -0.580965          0.000000
H              0.799571         -0.580965          0.000000
O             -4.894099         -3.502240          0.000000
H             -5.851369         -3.723915          0.000000
H             -4.373954         -4.335880          0.000000

