%NProcShared=4 
%Mem=4GB  
%Chk=H2O_H2O_2605.chk 

#p CCSD(T)/cc-pVTZ 

H2O_H2O_2605

0 1
O             -0.000000         -0.009833          0.000000
H             -0.799571         -0.580965          0.000000
H              0.799571         -0.580965          0.000000
O             -3.351751         -2.401202          0.000000
H             -4.292474         -2.685010          0.000000
H             -2.778197         -3.199038          0.000000

