%NProcShared=4 
%Mem=4GB  
%Chk=H2O_H2O_4164.chk 

#p CCSD(T)/cc-pVTZ 

H2O_H2O_4164

0 1
O             -0.000000         -0.009833          0.000000
H             -0.799571         -0.580965          0.000000
H              0.799571         -0.580965          0.000000
O             -4.362583         -3.116597          0.000000
H             -5.302441         -2.829937          0.000000
H             -4.328944         -4.098623          0.000000

