%NProcShared=4 
%Mem=4GB  
%Chk=H2O_H2O_3199.chk 

#p CCSD(T)/cc-pVTZ 

H2O_H2O_3199

0 1
O             -0.000000         -0.009833          0.000000
H             -0.799571         -0.580965          0.000000
H              0.799571         -0.580965          0.000000
O             -3.731688         -2.658512          0.000000
H             -4.302820         -1.858941          0.000000
H             -4.302820         -3.458084          0.000000

