%NProcShared=4 
%Mem=4GB  
%Chk=H2O_H2O_1035.chk 

#p CCSD(T)/cc-pVTZ 

H2O_H2O_1035

0 1
O             -0.000000         -0.009833          0.000000
H             -0.799571         -0.580965          0.000000
H              0.799571         -0.580965          0.000000
O             -2.332156         -1.669379          0.000000
H             -3.314182         -1.635740          0.000000
H             -2.045496         -2.609236          0.000000

