%NProcShared=4 
%Mem=4GB  
%Chk=H2O_H2O_2979.chk 

#p CCSD(T)/cc-pVTZ 

H2O_H2O_2979

0 1
O             -0.000000         -0.009833          0.000000
H             -0.799571         -0.580965          0.000000
H              0.799571         -0.580965          0.000000
O             -3.594569         -2.575272          0.000000
H             -4.514715         -2.919999          0.000000
H             -2.970062         -3.333888          0.000000

