%NProcShared=4 
%Mem=4GB  
%Chk=H2O_H2O_3267.chk 

#p CCSD(T)/cc-pVTZ 

H2O_H2O_3267

0 1
O             -0.000000         -0.009833          0.000000
H             -0.799571         -0.580965          0.000000
H              0.799571         -0.580965          0.000000
O             -3.779361         -2.697638          0.000000
H             -4.645235         -2.233130          0.000000
H             -3.937952         -3.667357          0.000000

