%NProcShared=4 
%Mem=4GB  
%Chk=H2O_H2O_1088.chk 

#p CCSD(T)/cc-pVTZ 

H2O_H2O_1088

0 1
O             -0.000000         -0.009833          0.000000
H             -0.799571         -0.580965          0.000000
H              0.799571         -0.580965          0.000000
O             -2.366020         -1.691246          0.000000
H             -3.322614         -1.466670          0.000000
H             -2.268226         -2.668969          0.000000

