%NProcShared=4 
%Mem=4GB  
%Chk=H2O_H2O_4311.chk 

#p CCSD(T)/cc-pVTZ 

H2O_H2O_4311

0 1
O             -0.000000         -0.009833          0.000000
H             -0.799571         -0.580965          0.000000
H              0.799571         -0.580965          0.000000
O             -4.458639         -3.187557          0.000000
H             -5.436362         -3.089763          0.000000
H             -4.234063         -4.144151          0.000000

