%NProcShared=4 
%Mem=4GB  
%Chk=H2O_H2O_324.chk 

#p CCSD(T)/cc-pVTZ 

H2O_H2O_324

0 1
O             -0.000000         -0.009833          0.000000
H             -0.799571         -0.580965          0.000000
H              0.799571         -0.580965          0.000000
O             -1.865365         -1.325402          0.000000
H             -2.436497         -0.525831          0.000000
H             -2.436497         -2.124973          0.000000

