%NProcShared=4 
%Mem=4GB  
%Chk=H2O_H2O_1413.chk 

#p CCSD(T)/cc-pVTZ 

H2O_H2O_1413

0 1
O             -0.000000         -0.009833          0.000000
H             -0.799571         -0.580965          0.000000
H              0.799571         -0.580965          0.000000
O             -2.576996         -1.841945          0.000000
H             -3.533590         -1.617369          0.000000
H             -2.479202         -2.819668          0.000000

