%NProcShared=4 
%Mem=4GB  
%Chk=H2O_H2O_119.chk 

#p CCSD(T)/cc-pVTZ 

H2O_H2O_119

0 1
O             -0.000000         -0.009833          0.000000
H             -0.799571         -0.580965          0.000000
H              0.799571         -0.580965          0.000000
O             -1.735012         -1.235825          0.000000
H             -2.532848         -0.662271          0.000000
H             -2.018820         -2.176547          0.000000

