%NProcShared=4 
%Mem=4GB  
%Chk=H2O_H2O_4666.chk 

#p CCSD(T)/cc-pVTZ 

H2O_H2O_4666

0 1
O             -0.000000         -0.009833          0.000000
H             -0.799571         -0.580965          0.000000
H              0.799571         -0.580965          0.000000
O             -4.687876         -3.347373          0.000000
H             -5.582276         -2.940490          0.000000
H             -4.782705         -4.325388          0.000000

