%NProcShared=4 
%Mem=4GB  
%Chk=H2O_H2O_362.chk 

#p CCSD(T)/cc-pVTZ 

H2O_H2O_362

0 1
O             -0.000000         -0.009833          0.000000
H             -0.799571         -0.580965          0.000000
H              0.799571         -0.580965          0.000000
O             -1.894943         -1.355540          0.000000
H             -2.864176         -1.194009          0.000000
H             -1.733412         -2.324773          0.000000

