%NProcShared=4 
%Mem=4GB  
%Chk=H2O_H2O_1414.chk 

#p CCSD(T)/cc-pVTZ 

H2O_H2O_1414

0 1
O             -0.000000         -0.009833          0.000000
H             -0.799571         -0.580965          0.000000
H              0.799571         -0.580965          0.000000
O             -2.577404         -1.841448          0.000000
H             -3.517262         -1.554788          0.000000
H             -2.543766         -2.823474          0.000000

