%NProcShared=4 
%Mem=4GB  
%Chk=H2O_H2O_4888.chk 

#p CCSD(T)/cc-pVTZ 

H2O_H2O_4888

0 1
O             -0.000000         -0.009833          0.000000
H             -0.799571         -0.580965          0.000000
H              0.799571         -0.580965          0.000000
O             -4.832813         -3.453270          0.000000
H             -5.789407         -3.228694          0.000000
H             -4.735019         -4.430993          0.000000

