%NProcShared=4 
%Mem=4GB  
%Chk=H2O_H2O_759.chk 

#p CCSD(T)/cc-pVTZ 

H2O_H2O_759

0 1
O             -0.000000         -0.009833          0.000000
H             -0.799571         -0.580965          0.000000
H              0.799571         -0.580965          0.000000
O             -2.153115         -1.542239          0.000000
H             -3.135238         -1.572900          0.000000
H             -1.805600         -2.461336          0.000000

