%NProcShared=4 
%Mem=4GB  
%Chk=H2O_H2O_1883.chk 

#p CCSD(T)/cc-pVTZ 

H2O_H2O_1883

0 1
O             -0.000000         -0.009833          0.000000
H             -0.799571         -0.580965          0.000000
H              0.799571         -0.580965          0.000000
O             -2.882869         -2.064230          0.000000
H             -3.860884         -2.159060          0.000000
H             -2.475986         -2.958631          0.000000

