%NProcShared=4 
%Mem=4GB  
%Chk=H2O_H2O_1214.chk 

#p CCSD(T)/cc-pVTZ 

H2O_H2O_1214

0 1
O             -0.000000         -0.009833          0.000000
H             -0.799571         -0.580965          0.000000
H              0.799571         -0.580965          0.000000
O             -2.447573         -1.748710          0.000000
H             -3.387431         -1.462050          0.000000
H             -2.413934         -2.730735          0.000000

