%NProcShared=4 
%Mem=4GB  
%Chk=H2O_H2O_3785.chk 

#p CCSD(T)/cc-pVTZ 

H2O_H2O_3785

0 1
O             -0.000000         -0.009833          0.000000
H             -0.799571         -0.580965          0.000000
H              0.799571         -0.580965          0.000000
O             -4.117335         -2.944528          0.000000
H             -5.099360         -2.910889          0.000000
H             -3.830675         -3.884386          0.000000

