%NProcShared=4 
%Mem=4GB  
%Chk=H2O_H2O_3259.chk 

#p CCSD(T)/cc-pVTZ 

H2O_H2O_3259

0 1
O             -0.000000         -0.009833          0.000000
H             -0.799571         -0.580965          0.000000
H              0.799571         -0.580965          0.000000
O             -3.776005         -2.701465          0.000000
H             -4.758128         -2.732126          0.000000
H             -3.428489         -3.620562          0.000000

