%NProcShared=4 
%Mem=4GB  
%Chk=H2O_H2O_2309.chk 

#p CCSD(T)/cc-pVTZ 

H2O_H2O_2309

0 1
O             -0.000000         -0.009833          0.000000
H             -0.799571         -0.580965          0.000000
H              0.799571         -0.580965          0.000000
O             -3.159307         -2.260959          0.000000
H             -4.141430         -2.291620          0.000000
H             -2.811791         -3.180056          0.000000

