%NProcShared=4 
%Mem=4GB  
%Chk=H2O_H2O_1734.chk 

#p CCSD(T)/cc-pVTZ 

H2O_H2O_1734

0 1
O             -0.000000         -0.009833          0.000000
H             -0.799571         -0.580965          0.000000
H              0.799571         -0.580965          0.000000
O             -2.786042         -1.994337          0.000000
H             -3.768165         -2.024998          0.000000
H             -2.438527         -2.913434          0.000000

