%NProcShared=4 
%Mem=4GB  
%Chk=H2O_H2O_1329.chk 

#p CCSD(T)/cc-pVTZ 

H2O_H2O_1329

0 1
O             -0.000000         -0.009833          0.000000
H             -0.799571         -0.580965          0.000000
H              0.799571         -0.580965          0.000000
O             -2.523461         -1.810183          0.000000
H             -3.443608         -2.154910          0.000000
H             -1.898955         -2.568798          0.000000

