%NProcShared=4 
%Mem=4GB  
%Chk=H2O_H2O_3789.chk 

#p CCSD(T)/cc-pVTZ 

H2O_H2O_3789

0 1
O             -0.000000         -0.009833          0.000000
H             -0.799571         -0.580965          0.000000
H              0.799571         -0.580965          0.000000
O             -4.119150         -2.942713          0.000000
H             -5.059007         -2.656053          0.000000
H             -4.085511         -3.924739          0.000000

