%NProcShared=4 
%Mem=4GB  
%Chk=H2O_H2O_3031.chk 

#p CCSD(T)/cc-pVTZ 

H2O_H2O_3031

0 1
O             -0.000000         -0.009833          0.000000
H             -0.799571         -0.580965          0.000000
H              0.799571         -0.580965          0.000000
O             -3.628245         -2.598044          0.000000
H             -4.585515         -2.819718          0.000000
H             -3.108100         -3.431683          0.000000

