%NProcShared=4 
%Mem=4GB  
%Chk=H2O_H2O_2361.chk 

#p CCSD(T)/cc-pVTZ 

H2O_H2O_2361

0 1
O             -0.000000         -0.009833          0.000000
H             -0.799571         -0.580965          0.000000
H              0.799571         -0.580965          0.000000
O             -3.192785         -2.283361          0.000000
H             -4.170508         -2.185566          0.000000
H             -2.968209         -3.239955          0.000000

