%NProcShared=4 
%Mem=4GB  
%Chk=H2O_H2O_3168.chk 

#p CCSD(T)/cc-pVTZ 

H2O_H2O_3168

0 1
O             -0.000000         -0.009833          0.000000
H             -0.799571         -0.580965          0.000000
H              0.799571         -0.580965          0.000000
O             -3.714711         -2.650683          0.000000
H             -4.548351         -2.130538          0.000000
H             -3.936385         -3.607953          0.000000

