%NProcShared=4 
%Mem=4GB  
%Chk=H2O_H2O_911.chk 

#p CCSD(T)/cc-pVTZ 

H2O_H2O_911

0 1
O             -0.000000         -0.009833          0.000000
H             -0.799571         -0.580965          0.000000
H              0.799571         -0.580965          0.000000
O             -2.251509         -1.611009          0.000000
H             -3.229232         -1.513215          0.000000
H             -2.026933         -2.567603          0.000000

