%NProcShared=4 
%Mem=4GB  
%Chk=H2O_H2O_3107.chk 

#p CCSD(T)/cc-pVTZ 

H2O_H2O_3107

0 1
O             -0.000000         -0.009833          0.000000
H             -0.799571         -0.580965          0.000000
H              0.799571         -0.580965          0.000000
O             -3.677517         -2.632555          0.000000
H             -4.647236         -2.791146          0.000000
H             -3.213009         -3.498429          0.000000

