%NProcShared=4 
%Mem=4GB  
%Chk=H2O_H2O_3954.chk 

#p CCSD(T)/cc-pVTZ 

H2O_H2O_3954

0 1
O             -0.000000         -0.009833          0.000000
H             -0.799571         -0.580965          0.000000
H              0.799571         -0.580965          0.000000
O             -4.227496         -3.027371          0.000000
H             -5.147642         -3.372098          0.000000
H             -3.602989         -3.785986          0.000000

