%NProcShared=4 
%Mem=4GB  
%Chk=H2O_H2O_4937.chk 

#p CCSD(T)/cc-pVTZ 

H2O_H2O_4937

0 1
O             -0.000000         -0.009833          0.000000
H             -0.799571         -0.580965          0.000000
H              0.799571         -0.580965          0.000000
O             -4.864831         -3.476924          0.000000
H             -5.834064         -3.315393          0.000000
H             -4.703300         -4.446158          0.000000

