%NProcShared=4 
%Mem=4GB  
%Chk=H2O_H2O_779.chk 

#p CCSD(T)/cc-pVTZ 

H2O_H2O_779

0 1
O             -0.000000         -0.009833          0.000000
H             -0.799571         -0.580965          0.000000
H              0.799571         -0.580965          0.000000
O             -2.166426         -1.555153          0.000000
H             -3.086572         -1.899880          0.000000
H             -1.541919         -2.313769          0.000000

