%NProcShared=4 
%Mem=4GB  
%Chk=H2O_H2O_2513.chk 

#p CCSD(T)/cc-pVTZ 

H2O_H2O_2513

0 1
O             -0.000000         -0.009833          0.000000
H             -0.799571         -0.580965          0.000000
H              0.799571         -0.580965          0.000000
O             -3.291068         -2.352005          0.000000
H             -4.247662         -2.127429          0.000000
H             -3.193273         -3.329728          0.000000

