%NProcShared=4 
%Mem=4GB  
%Chk=H2O_H2O_3737.chk 

#p CCSD(T)/cc-pVTZ 

H2O_H2O_3737

0 1
O             -0.000000         -0.009833          0.000000
H             -0.799571         -0.580965          0.000000
H              0.799571         -0.580965          0.000000
O             -4.085844         -2.920495          0.000000
H             -5.055077         -2.758964          0.000000
H             -3.924313         -3.889729          0.000000

