%NProcShared=4 
%Mem=4GB  
%Chk=H2O_H2O_4384.chk 

#p CCSD(T)/cc-pVTZ 

H2O_H2O_4384

0 1
O             -0.000000         -0.009833          0.000000
H             -0.799571         -0.580965          0.000000
H              0.799571         -0.580965          0.000000
O             -4.506305         -3.223117          0.000000
H             -5.488428         -3.253778          0.000000
H             -4.158790         -4.142214          0.000000

