%NProcShared=4 
%Mem=4GB  
%Chk=H2O_H2O_2432.chk 

#p CCSD(T)/cc-pVTZ 

H2O_H2O_2432

0 1
O             -0.000000         -0.009833          0.000000
H             -0.799571         -0.580965          0.000000
H              0.799571         -0.580965          0.000000
O             -3.239337         -2.319564          0.000000
H             -4.209056         -2.478155          0.000000
H             -2.774829         -3.185438          0.000000

