%NProcShared=4 
%Mem=4GB  
%Chk=H2O_H2O_877.chk 

#p CCSD(T)/cc-pVTZ 

H2O_H2O_877

0 1
O             -0.000000         -0.009833          0.000000
H             -0.799571         -0.580965          0.000000
H              0.799571         -0.580965          0.000000
O             -2.230080         -1.601773          0.000000
H             -3.097359         -2.063654          0.000000
H             -1.511897         -2.272384          0.000000

