%NProcShared=4 
%Mem=4GB  
%Chk=H2O_H2O_2377.chk 

#p CCSD(T)/cc-pVTZ 

H2O_H2O_2377

0 1
O             -0.000000         -0.009833          0.000000
H             -0.799571         -0.580965          0.000000
H              0.799571         -0.580965          0.000000
O             -3.203814         -2.297309          0.000000
H             -4.071092         -2.759190          0.000000
H             -2.485631         -2.967920          0.000000

