%NProcShared=4 
%Mem=4GB  
%Chk=H2O_H2O_3773.chk 

#p CCSD(T)/cc-pVTZ 

H2O_H2O_3773

0 1
O             -0.000000         -0.009833          0.000000
H             -0.799571         -0.580965          0.000000
H              0.799571         -0.580965          0.000000
O             -4.104932         -2.925778          0.000000
H             -4.727135         -2.165272          0.000000
H             -4.622546         -3.760991          0.000000

