%NProcShared=4 
%Mem=4GB  
%Chk=H2O_H2O_2043.chk 

#p CCSD(T)/cc-pVTZ 

H2O_H2O_2043

0 1
O             -0.000000         -0.009833          0.000000
H             -0.799571         -0.580965          0.000000
H              0.799571         -0.580965          0.000000
O             -2.984410         -2.129031          0.000000
H             -3.818050         -1.608886          0.000000
H             -3.206085         -3.086302          0.000000

