%NProcShared=4 
%Mem=4GB  
%Chk=H2O_H2O_1331.chk 

#p CCSD(T)/cc-pVTZ 

H2O_H2O_1331

0 1
O             -0.000000         -0.009833          0.000000
H             -0.799571         -0.580965          0.000000
H              0.799571         -0.580965          0.000000
O             -2.524679         -1.809770          0.000000
H             -3.481950         -2.031444          0.000000
H             -2.004535         -2.643409          0.000000

