%NProcShared=4 
%Mem=4GB  
%Chk=H2O_H2O_3239.chk 

#p CCSD(T)/cc-pVTZ 

H2O_H2O_3239

0 1
O             -0.000000         -0.009833          0.000000
H             -0.799571         -0.580965          0.000000
H              0.799571         -0.580965          0.000000
O             -3.762114         -2.687683          0.000000
H             -4.701972         -2.401023          0.000000
H             -3.728475         -3.669709          0.000000

