%NProcShared=4 
%Mem=4GB  
%Chk=H2O_H2O_1867.chk 

#p CCSD(T)/cc-pVTZ 

H2O_H2O_1867

0 1
O             -0.000000         -0.009833          0.000000
H             -0.799571         -0.580965          0.000000
H              0.799571         -0.580965          0.000000
O             -2.870543         -2.048472          0.000000
H             -3.736417         -1.583963          0.000000
H             -3.029134         -3.018191          0.000000

