%NProcShared=4 
%Mem=4GB  
%Chk=H2O_H2O_845.chk 

#p CCSD(T)/cc-pVTZ 

H2O_H2O_845

0 1
O             -0.000000         -0.009833          0.000000
H             -0.799571         -0.580965          0.000000
H              0.799571         -0.580965          0.000000
O             -2.205837         -1.571385          0.000000
H             -2.964452         -0.946878          0.000000
H             -2.550563         -2.491531          0.000000

