%NProcShared=4 
%Mem=4GB  
%Chk=H2O_H2O_2514.chk 

#p CCSD(T)/cc-pVTZ 

H2O_H2O_2514

0 1
O             -0.000000         -0.009833          0.000000
H             -0.799571         -0.580965          0.000000
H              0.799571         -0.580965          0.000000
O             -3.291476         -2.351507          0.000000
H             -4.231334         -2.064848          0.000000
H             -3.257837         -3.333533          0.000000

