%NProcShared=4 
%Mem=4GB  
%Chk=H2O_H2O_842.chk 

#p CCSD(T)/cc-pVTZ 

H2O_H2O_842

0 1
O             -0.000000         -0.009833          0.000000
H             -0.799571         -0.580965          0.000000
H              0.799571         -0.580965          0.000000
O             -2.205158         -1.573189          0.000000
H             -3.071032         -1.108680          0.000000
H             -2.363749         -2.542908          0.000000

