%NProcShared=4 
%Mem=4GB  
%Chk=H2O_H2O_1100.chk 

#p CCSD(T)/cc-pVTZ 

H2O_H2O_1100

0 1
O             -0.000000         -0.009833          0.000000
H             -0.799571         -0.580965          0.000000
H              0.799571         -0.580965          0.000000
O             -2.374856         -1.706188          0.000000
H             -3.174428         -2.277320          0.000000
H             -1.575285         -2.277320          0.000000

