%NProcShared=4 
%Mem=4GB  
%Chk=H2O_H2O_427.chk 

#p CCSD(T)/cc-pVTZ 

H2O_H2O_427

0 1
O             -0.000000         -0.009833          0.000000
H             -0.799571         -0.580965          0.000000
H              0.799571         -0.580965          0.000000
O             -1.937960         -1.393112          0.000000
H             -2.805238         -1.854993          0.000000
H             -1.219776         -2.063723          0.000000

