%NProcShared=4 
%Mem=4GB  
%Chk=H2O_H2O_4952.chk 

#p CCSD(T)/cc-pVTZ 

H2O_H2O_4952

0 1
O             -0.000000         -0.009833          0.000000
H             -0.799571         -0.580965          0.000000
H              0.799571         -0.580965          0.000000
O             -4.875390         -3.491312          0.000000
H             -5.742669         -3.953193          0.000000
H             -4.157207         -4.161923          0.000000

