%NProcShared=4 
%Mem=4GB  
%Chk=H2O_H2O_2571.chk 

#p CCSD(T)/cc-pVTZ 

H2O_H2O_2571

0 1
O             -0.000000         -0.009833          0.000000
H             -0.799571         -0.580965          0.000000
H              0.799571         -0.580965          0.000000
O             -3.325777         -2.370624          0.000000
H             -4.041923         -1.697839          0.000000
H             -3.729946         -3.266254          0.000000

