%NProcShared=4 
%Mem=4GB  
%Chk=H2O_H2O_4691.chk 

#p CCSD(T)/cc-pVTZ 

H2O_H2O_4691

0 1
O             -0.000000         -0.009833          0.000000
H             -0.799571         -0.580965          0.000000
H              0.799571         -0.580965          0.000000
O             -4.704105         -3.358965          0.000000
H             -5.598505         -2.952082          0.000000
H             -4.798934         -4.336980          0.000000

