%NProcShared=4 
%Mem=4GB  
%Chk=H2O_H2O_1714.chk 

#p CCSD(T)/cc-pVTZ 

H2O_H2O_1714

0 1
O             -0.000000         -0.009833          0.000000
H             -0.799571         -0.580965          0.000000
H              0.799571         -0.580965          0.000000
O             -2.772151         -1.980555          0.000000
H             -3.712009         -1.693895          0.000000
H             -2.738512         -2.962581          0.000000

