%NProcShared=4 
%Mem=4GB  
%Chk=H2O_H2O_643.chk 

#p CCSD(T)/cc-pVTZ 

H2O_H2O_643

0 1
O             -0.000000         -0.009833          0.000000
H             -0.799571         -0.580965          0.000000
H              0.799571         -0.580965          0.000000
O             -2.075592         -1.479864          0.000000
H             -2.909232         -0.959720          0.000000
H             -2.297266         -2.437135          0.000000

