%NProcShared=4 
%Mem=4GB  
%Chk=H2O_H2O_1731.chk 

#p CCSD(T)/cc-pVTZ 

H2O_H2O_1731

0 1
O             -0.000000         -0.009833          0.000000
H             -0.799571         -0.580965          0.000000
H              0.799571         -0.580965          0.000000
O             -2.784342         -1.995246          0.000000
H             -3.741612         -2.216920          0.000000
H             -2.264197         -2.828886          0.000000

