%NProcShared=4 
%Mem=4GB  
%Chk=H2O_H2O_985.chk 

#p CCSD(T)/cc-pVTZ 

H2O_H2O_985

0 1
O             -0.000000         -0.009833          0.000000
H             -0.799571         -0.580965          0.000000
H              0.799571         -0.580965          0.000000
O             -2.299698         -1.646194          0.000000
H             -3.281724         -1.612556          0.000000
H             -2.013038         -2.586052          0.000000

