%NProcShared=4 
%Mem=4GB  
%Chk=H2O_H2O_3617.chk 

#p CCSD(T)/cc-pVTZ 

H2O_H2O_3617

0 1
O             -0.000000         -0.009833          0.000000
H             -0.799571         -0.580965          0.000000
H              0.799571         -0.580965          0.000000
O             -4.006565         -2.859930          0.000000
H             -4.872439         -2.395421          0.000000
H             -4.165157         -3.829649          0.000000

