%NProcShared=4 
%Mem=4GB  
%Chk=H2O_H2O_3161.chk 

#p CCSD(T)/cc-pVTZ 

H2O_H2O_3161

0 1
O             -0.000000         -0.009833          0.000000
H             -0.799571         -0.580965          0.000000
H              0.799571         -0.580965          0.000000
O             -3.712109         -2.654313          0.000000
H             -4.689833         -2.556519          0.000000
H             -3.487533         -3.610907          0.000000

