%NProcShared=4 
%Mem=4GB  
%Chk=H2O_H2O_2328.chk 

#p CCSD(T)/cc-pVTZ 

H2O_H2O_2328

0 1
O             -0.000000         -0.009833          0.000000
H             -0.799571         -0.580965          0.000000
H              0.799571         -0.580965          0.000000
O             -3.171991         -2.274020          0.000000
H             -4.067621         -2.678189          0.000000
H             -2.499205         -2.990166          0.000000

