%NProcShared=4 
%Mem=4GB  
%Chk=H2O_H2O_1107.chk 

#p CCSD(T)/cc-pVTZ 

H2O_H2O_1107

0 1
O             -0.000000         -0.009833          0.000000
H             -0.799571         -0.580965          0.000000
H              0.799571         -0.580965          0.000000
O             -2.379206         -1.705174          0.000000
H             -3.348925         -1.863765          0.000000
H             -1.914697         -2.571048          0.000000

