%NProcShared=4 
%Mem=4GB  
%Chk=H2O_H2O_581.chk 

#p CCSD(T)/cc-pVTZ 

H2O_H2O_581

0 1
O             -0.000000         -0.009833          0.000000
H             -0.799571         -0.580965          0.000000
H              0.799571         -0.580965          0.000000
O             -2.037813         -1.462002          0.000000
H             -2.995083         -1.683676          0.000000
H             -1.517668         -2.295641          0.000000

