%NProcShared=4 
%Mem=4GB  
%Chk=H2O_H2O_627.chk 

#p CCSD(T)/cc-pVTZ 

H2O_H2O_627

0 1
O             -0.000000         -0.009833          0.000000
H             -0.799571         -0.580965          0.000000
H              0.799571         -0.580965          0.000000
O             -2.067791         -1.485851          0.000000
H             -2.935070         -1.947731          0.000000
H             -1.349608         -2.156461          0.000000

