%NProcShared=4 
%Mem=4GB  
%Chk=H2O_H2O_3049.chk 

#p CCSD(T)/cc-pVTZ 

H2O_H2O_3049

0 1
O             -0.000000         -0.009833          0.000000
H             -0.799571         -0.580965          0.000000
H              0.799571         -0.580965          0.000000
O             -3.634315         -2.588959          0.000000
H             -4.205447         -1.789387          0.000000
H             -4.205447         -3.388530          0.000000

