%NProcShared=4 
%Mem=4GB  
%Chk=H2O_H2O_2481.chk 

#p CCSD(T)/cc-pVTZ 

H2O_H2O_2481

0 1
O             -0.000000         -0.009833          0.000000
H             -0.799571         -0.580965          0.000000
H              0.799571         -0.580965          0.000000
O             -3.271209         -2.343014          0.000000
H             -4.228479         -2.564688          0.000000
H             -2.751064         -3.176654          0.000000

