%NProcShared=4 
%Mem=4GB  
%Chk=H2O_H2O_320.chk 

#p CCSD(T)/cc-pVTZ 

H2O_H2O_320

0 1
O             -0.000000         -0.009833          0.000000
H             -0.799571         -0.580965          0.000000
H              0.799571         -0.580965          0.000000
O             -1.865030         -1.327947          0.000000
H             -2.623645         -0.703440          0.000000
H             -2.209757         -2.248094          0.000000

