%NProcShared=4 
%Mem=4GB  
%Chk=H2O_H2O_1855.chk 

#p CCSD(T)/cc-pVTZ 

H2O_H2O_1855

0 1
O             -0.000000         -0.009833          0.000000
H             -0.799571         -0.580965          0.000000
H              0.799571         -0.580965          0.000000
O             -2.864884         -2.053434          0.000000
H             -3.805607         -2.337242          0.000000
H             -2.291330         -2.851270          0.000000

