%NProcShared=4 
%Mem=4GB  
%Chk=H2O_H2O_3493.chk 

#p CCSD(T)/cc-pVTZ 

H2O_H2O_3493

0 1
O             -0.000000         -0.009833          0.000000
H             -0.799571         -0.580965          0.000000
H              0.799571         -0.580965          0.000000
O             -3.925686         -2.801383          0.000000
H             -4.759326         -2.281238          0.000000
H             -4.147361         -3.758653          0.000000

