%NProcShared=4 
%Mem=4GB  
%Chk=H2O_H2O_2720.chk 

#p CCSD(T)/cc-pVTZ 

H2O_H2O_2720

0 1
O             -0.000000         -0.009833          0.000000
H             -0.799571         -0.580965          0.000000
H              0.799571         -0.580965          0.000000
O             -3.423004         -2.440804          0.000000
H             -4.181620         -1.816298          0.000000
H             -3.767731         -3.360951          0.000000

