%NProcShared=4 
%Mem=4GB  
%Chk=H2O_H2O_3884.chk 

#p CCSD(T)/cc-pVTZ 

H2O_H2O_3884

0 1
O             -0.000000         -0.009833          0.000000
H             -0.799571         -0.580965          0.000000
H              0.799571         -0.580965          0.000000
O             -4.181727         -2.991272          0.000000
H             -5.163850         -3.021933          0.000000
H             -3.834212         -3.910369          0.000000

