%NProcShared=4 
%Mem=4GB  
%Chk=H2O_H2O_1846.chk 

#p CCSD(T)/cc-pVTZ 

H2O_H2O_1846

0 1
O             -0.000000         -0.009833          0.000000
H             -0.799571         -0.580965          0.000000
H              0.799571         -0.580965          0.000000
O             -2.855139         -2.034448          0.000000
H             -3.571285         -1.361663          0.000000
H             -3.259308         -2.930079          0.000000

