%NProcShared=4 
%Mem=4GB  
%Chk=H2O_H2O_727.chk 

#p CCSD(T)/cc-pVTZ 

H2O_H2O_727

0 1
O             -0.000000         -0.009833          0.000000
H             -0.799571         -0.580965          0.000000
H              0.799571         -0.580965          0.000000
O             -2.132707         -1.532220          0.000000
H             -2.999985         -1.994100          0.000000
H             -1.414523         -2.202830          0.000000

