%NProcShared=4 
%Mem=4GB  
%Chk=H2O_H2O_4283.chk 

#p CCSD(T)/cc-pVTZ 

H2O_H2O_4283

0 1
O             -0.000000         -0.009833          0.000000
H             -0.799571         -0.580965          0.000000
H              0.799571         -0.580965          0.000000
O             -4.440843         -3.177088          0.000000
H             -5.418858         -3.271917          0.000000
H             -4.033960         -4.071488          0.000000

