%NProcShared=4 
%Mem=4GB  
%Chk=H2O_H2O_4824.chk 

#p CCSD(T)/cc-pVTZ 

H2O_H2O_4824

0 1
O             -0.000000         -0.009833          0.000000
H             -0.799571         -0.580965          0.000000
H              0.799571         -0.580965          0.000000
O             -4.786567         -3.412010          0.000000
H             -5.357699         -2.612438          0.000000
H             -5.357699         -4.211581          0.000000

