%NProcShared=4 
%Mem=4GB  
%Chk=H2O_H2O_708.chk 

#p CCSD(T)/cc-pVTZ 

H2O_H2O_708

0 1
O             -0.000000         -0.009833          0.000000
H             -0.799571         -0.580965          0.000000
H              0.799571         -0.580965          0.000000
O             -2.120111         -1.519394          0.000000
H             -3.098126         -1.614223          0.000000
H             -1.713228         -2.413795          0.000000

