%NProcShared=4 
%Mem=4GB  
%Chk=H2O_H2O_475.chk 

#p CCSD(T)/cc-pVTZ 

H2O_H2O_475

0 1
O             -0.000000         -0.009833          0.000000
H             -0.799571         -0.580965          0.000000
H              0.799571         -0.580965          0.000000
O             -1.969134         -1.416381          0.000000
H             -2.768705         -1.987513          0.000000
H             -1.169563         -1.987513          0.000000

