%NProcShared=4 
%Mem=4GB  
%Chk=H2O_H2O_3414.chk 

#p CCSD(T)/cc-pVTZ 

H2O_H2O_3414

0 1
O             -0.000000         -0.009833          0.000000
H             -0.799571         -0.580965          0.000000
H              0.799571         -0.580965          0.000000
O             -3.875716         -2.768829          0.000000
H             -4.815574         -2.482169          0.000000
H             -3.842078         -3.750855          0.000000

