%NProcShared=4 
%Mem=4GB  
%Chk=H2O_H2O_99.chk 

#p CCSD(T)/cc-pVTZ 

H2O_H2O_99

0 1
O             -0.000000         -0.009833          0.000000
H             -0.799571         -0.580965          0.000000
H              0.799571         -0.580965          0.000000
O             -1.719305         -1.221072          0.000000
H             -2.290437         -0.421500          0.000000
H             -2.290437         -2.020643          0.000000

