%NProcShared=4 
%Mem=4GB  
%Chk=H2O_H2O_4234.chk 

#p CCSD(T)/cc-pVTZ 

H2O_H2O_4234

0 1
O             -0.000000         -0.009833          0.000000
H             -0.799571         -0.580965          0.000000
H              0.799571         -0.580965          0.000000
O             -4.408932         -3.153564          0.000000
H             -5.391055         -3.184224          0.000000
H             -4.061416         -4.072661          0.000000

