%NProcShared=4 
%Mem=4GB  
%Chk=H2O_H2O_4334.chk 

#p CCSD(T)/cc-pVTZ 

H2O_H2O_4334

0 1
O             -0.000000         -0.009833          0.000000
H             -0.799571         -0.580965          0.000000
H              0.799571         -0.580965          0.000000
O             -4.473848         -3.199932          0.000000
H             -5.455971         -3.230593          0.000000
H             -4.126332         -4.119029          0.000000

