%NProcShared=4 
%Mem=4GB  
%Chk=H2O_H2O_1778.chk 

#p CCSD(T)/cc-pVTZ 

H2O_H2O_1778

0 1
O             -0.000000         -0.009833          0.000000
H             -0.799571         -0.580965          0.000000
H              0.799571         -0.580965          0.000000
O             -2.814955         -2.018990          0.000000
H             -3.710585         -2.423159          0.000000
H             -2.142169         -2.735136          0.000000

