%NProcShared=4 
%Mem=4GB  
%Chk=H2O_H2O_987.chk 

#p CCSD(T)/cc-pVTZ 

H2O_H2O_987

0 1
O             -0.000000         -0.009833          0.000000
H             -0.799571         -0.580965          0.000000
H              0.799571         -0.580965          0.000000
O             -2.300665         -1.645346          0.000000
H             -3.269899         -1.483815          0.000000
H             -2.139134         -2.614580          0.000000

