%NProcShared=4 
%Mem=4GB  
%Chk=H2O_H2O_4432.chk 

#p CCSD(T)/cc-pVTZ 

H2O_H2O_4432

0 1
O             -0.000000         -0.009833          0.000000
H             -0.799571         -0.580965          0.000000
H              0.799571         -0.580965          0.000000
O             -4.537649         -3.246945          0.000000
H             -5.507368         -3.405536          0.000000
H             -4.073140         -4.112819          0.000000

