%NProcShared=4 
%Mem=4GB  
%Chk=H2O_H2O_4864.chk 

#p CCSD(T)/cc-pVTZ 

H2O_H2O_4864

0 1
O             -0.000000         -0.009833          0.000000
H             -0.799571         -0.580965          0.000000
H              0.799571         -0.580965          0.000000
O             -4.816993         -3.441180          0.000000
H             -5.756850         -3.154521          0.000000
H             -4.783354         -4.423206          0.000000

