%NProcShared=4 
%Mem=4GB  
%Chk=H2O_H2O_3623.chk 

#p CCSD(T)/cc-pVTZ 

H2O_H2O_3623

0 1
O             -0.000000         -0.009833          0.000000
H             -0.799571         -0.580965          0.000000
H              0.799571         -0.580965          0.000000
O             -4.007558         -2.856224          0.000000
H             -4.629762         -2.095718          0.000000
H             -4.525173         -3.691437          0.000000

