%NProcShared=4 
%Mem=4GB  
%Chk=H2O_H2O_2042.chk 

#p CCSD(T)/cc-pVTZ 

H2O_H2O_2042

0 1
O             -0.000000         -0.009833          0.000000
H             -0.799571         -0.580965          0.000000
H              0.799571         -0.580965          0.000000
O             -2.984145         -2.129617          0.000000
H             -3.850019         -1.665109          0.000000
H             -3.142736         -3.099336          0.000000

