%NProcShared=4 
%Mem=4GB  
%Chk=H2O_H2O_2873.chk 

#p CCSD(T)/cc-pVTZ 

H2O_H2O_2873

0 1
O             -0.000000         -0.009833          0.000000
H             -0.799571         -0.580965          0.000000
H              0.799571         -0.580965          0.000000
O             -3.520692         -2.508456          0.000000
H             -4.142895         -1.747951          0.000000
H             -4.038306         -3.343669          0.000000

