%NProcShared=4 
%Mem=4GB  
%Chk=H2O_H2O_4156.chk 

#p CCSD(T)/cc-pVTZ 

H2O_H2O_4156

0 1
O             -0.000000         -0.009833          0.000000
H             -0.799571         -0.580965          0.000000
H              0.799571         -0.580965          0.000000
O             -4.358545         -3.119695          0.000000
H             -5.315815         -3.341370          0.000000
H             -3.838400         -3.953335          0.000000

