%NProcShared=4 
%Mem=4GB  
%Chk=H2O_H2O_15.chk 

#p CCSD(T)/cc-pVTZ 

H2O_H2O_15

0 1
O             -0.000000         -0.009833          0.000000
H             -0.799571         -0.580965          0.000000
H              0.799571         -0.580965          0.000000
O             -1.668961         -1.191758          0.000000
H             -2.588058         -0.844243          0.000000
H             -1.699622         -2.173881          0.000000

