%NProcShared=4 
%Mem=4GB  
%Chk=H2O_H2O_1124.chk 

#p CCSD(T)/cc-pVTZ 

H2O_H2O_1124

0 1
O             -0.000000         -0.009833          0.000000
H             -0.799571         -0.580965          0.000000
H              0.799571         -0.580965          0.000000
O             -2.384690         -1.696354          0.000000
H             -2.955822         -0.896783          0.000000
H             -2.955822         -2.495926          0.000000

