%NProcShared=4 
%Mem=4GB  
%Chk=H2O_H2O_3749.chk 

#p CCSD(T)/cc-pVTZ 

H2O_H2O_3749

0 1
O             -0.000000         -0.009833          0.000000
H             -0.799571         -0.580965          0.000000
H              0.799571         -0.580965          0.000000
O             -4.088724         -2.913542          0.000000
H             -4.659856         -2.113971          0.000000
H             -4.659856         -3.713114          0.000000

