%NProcShared=4 
%Mem=4GB  
%Chk=H2O_H2O_1265.chk 

#p CCSD(T)/cc-pVTZ 

H2O_H2O_1265

0 1
O             -0.000000         -0.009833          0.000000
H             -0.799571         -0.580965          0.000000
H              0.799571         -0.580965          0.000000
O             -2.480406         -1.771371          0.000000
H             -3.399503         -1.423856          0.000000
H             -2.511067         -2.753494          0.000000

