%NProcShared=4 
%Mem=4GB  
%Chk=H2O_H2O_1938.chk 

#p CCSD(T)/cc-pVTZ 

H2O_H2O_1938

0 1
O             -0.000000         -0.009833          0.000000
H             -0.799571         -0.580965          0.000000
H              0.799571         -0.580965          0.000000
O             -2.917803         -2.085383          0.000000
H             -3.874397         -1.860807          0.000000
H             -2.820009         -3.063106          0.000000

