%NProcShared=4 
%Mem=4GB  
%Chk=H2O_H2O_2255.chk 

#p CCSD(T)/cc-pVTZ 

H2O_H2O_2255

0 1
O             -0.000000         -0.009833          0.000000
H             -0.799571         -0.580965          0.000000
H              0.799571         -0.580965          0.000000
O             -3.124547         -2.238910          0.000000
H             -4.065269         -2.522718          0.000000
H             -2.550993         -3.036746          0.000000

