%NProcShared=4 
%Mem=4GB  
%Chk=H2O_H2O_3576.chk 

#p CCSD(T)/cc-pVTZ 

H2O_H2O_3576

0 1
O             -0.000000         -0.009833          0.000000
H             -0.799571         -0.580965          0.000000
H              0.799571         -0.580965          0.000000
O             -3.982160         -2.853801          0.000000
H             -4.817374         -3.371415          0.000000
H             -3.221655         -3.476004          0.000000

