%NProcShared=4 
%Mem=4GB  
%Chk=H2O_H2O_1191.chk 

#p CCSD(T)/cc-pVTZ 

H2O_H2O_1191

0 1
O             -0.000000         -0.009833          0.000000
H             -0.799571         -0.580965          0.000000
H              0.799571         -0.580965          0.000000
O             -2.432059         -1.736048          0.000000
H             -3.326460         -1.329165          0.000000
H             -2.526888         -2.714063          0.000000

