%NProcShared=4 
%Mem=4GB  
%Chk=H2O_H2O_1923.chk 

#p CCSD(T)/cc-pVTZ 

H2O_H2O_1923

0 1
O             -0.000000         -0.009833          0.000000
H             -0.799571         -0.580965          0.000000
H              0.799571         -0.580965          0.000000
O             -2.903993         -2.067950          0.000000
H             -3.526197         -1.307444          0.000000
H             -3.421608         -2.903163          0.000000

