%NProcShared=4 
%Mem=4GB  
%Chk=H2O_H2O_1570.chk 

#p CCSD(T)/cc-pVTZ 

H2O_H2O_1570

0 1
O             -0.000000         -0.009833          0.000000
H             -0.799571         -0.580965          0.000000
H              0.799571         -0.580965          0.000000
O             -2.676475         -1.907560          0.000000
H             -3.435090         -1.283053          0.000000
H             -3.021202         -2.827707          0.000000

