%NProcShared=4 
%Mem=4GB  
%Chk=H2O_H2O_2656.chk 

#p CCSD(T)/cc-pVTZ 

H2O_H2O_2656

0 1
O             -0.000000         -0.009833          0.000000
H             -0.799571         -0.580965          0.000000
H              0.799571         -0.580965          0.000000
O             -3.384811         -2.424159          0.000000
H             -4.342082         -2.645834          0.000000
H             -2.864666         -3.257799          0.000000

