%NProcShared=4 
%Mem=4GB  
%Chk=H2O_H2O_3285.chk 

#p CCSD(T)/cc-pVTZ 

H2O_H2O_3285

0 1
O             -0.000000         -0.009833          0.000000
H             -0.799571         -0.580965          0.000000
H              0.799571         -0.580965          0.000000
O             -3.792757         -2.712683          0.000000
H             -4.774783         -2.679044          0.000000
H             -3.506097         -3.652540          0.000000

