%NProcShared=4 
%Mem=4GB  
%Chk=H2O_H2O_2139.chk 

#p CCSD(T)/cc-pVTZ 

H2O_H2O_2139

0 1
O             -0.000000         -0.009833          0.000000
H             -0.799571         -0.580965          0.000000
H              0.799571         -0.580965          0.000000
O             -3.048043         -2.177623          0.000000
H             -3.987900         -1.890964          0.000000
H             -3.014404         -3.159649          0.000000

