%NProcShared=4 
%Mem=4GB  
%Chk=H2O_H2O_3065.chk 

#p CCSD(T)/cc-pVTZ 

H2O_H2O_3065

0 1
O             -0.000000         -0.009833          0.000000
H             -0.799571         -0.580965          0.000000
H              0.799571         -0.580965          0.000000
O             -3.648886         -2.606014          0.000000
H             -4.567983         -2.258499          0.000000
H             -3.679547         -3.588137          0.000000

