%NProcShared=4 
%Mem=4GB  
%Chk=H2O_H2O_553.chk 

#p CCSD(T)/cc-pVTZ 

H2O_H2O_553

0 1
O             -0.000000         -0.009833          0.000000
H             -0.799571         -0.580965          0.000000
H              0.799571         -0.580965          0.000000
O             -2.019739         -1.450969          0.000000
H             -2.915369         -1.855138          0.000000
H             -1.346954         -2.167115          0.000000

