%NProcShared=4 
%Mem=4GB  
%Chk=H2O_H2O_1774.chk 

#p CCSD(T)/cc-pVTZ 

H2O_H2O_1774

0 1
O             -0.000000         -0.009833          0.000000
H             -0.799571         -0.580965          0.000000
H              0.799571         -0.580965          0.000000
O             -2.806641         -1.997753          0.000000
H             -3.377773         -1.198182          0.000000
H             -3.377773         -2.797325          0.000000

