%NProcShared=4 
%Mem=4GB  
%Chk=H2O_H2O_3574.chk 

#p CCSD(T)/cc-pVTZ 

H2O_H2O_3574

0 1
O             -0.000000         -0.009833          0.000000
H             -0.799571         -0.580965          0.000000
H              0.799571         -0.580965          0.000000
O             -3.975122         -2.832397          0.000000
H             -4.546254         -2.032825          0.000000
H             -4.546254         -3.631968          0.000000

