%NProcShared=4 
%Mem=4GB  
%Chk=H2O_H2O_2495.chk 

#p CCSD(T)/cc-pVTZ 

H2O_H2O_2495

0 1
O             -0.000000         -0.009833          0.000000
H             -0.799571         -0.580965          0.000000
H              0.799571         -0.580965          0.000000
O             -3.276944         -2.336474          0.000000
H             -4.035559         -1.711967          0.000000
H             -3.621671         -3.256621          0.000000

