%NProcShared=4 
%Mem=4GB  
%Chk=H2O_H2O_29.chk 

#p CCSD(T)/cc-pVTZ 

H2O_H2O_29

0 1
O             -0.000000         -0.009833          0.000000
H             -0.799571         -0.580965          0.000000
H              0.799571         -0.580965          0.000000
O             -1.679559         -1.207385          0.000000
H             -2.599705         -1.552112          0.000000
H             -1.055052         -1.966001          0.000000

