%NProcShared=4 
%Mem=4GB  
%Chk=H2O_H2O_307.chk 

#p CCSD(T)/cc-pVTZ 

H2O_H2O_307

0 1
O             -0.000000         -0.009833          0.000000
H             -0.799571         -0.580965          0.000000
H              0.799571         -0.580965          0.000000
O             -1.859881         -1.334221          0.000000
H             -2.829600         -1.492812          0.000000
H             -1.395372         -2.200095          0.000000

