%NProcShared=4 
%Mem=4GB  
%Chk=H2O_H2O_3309.chk 

#p CCSD(T)/cc-pVTZ 

H2O_H2O_3309

0 1
O             -0.000000         -0.009833          0.000000
H             -0.799571         -0.580965          0.000000
H              0.799571         -0.580965          0.000000
O             -3.808462         -2.724650          0.000000
H             -4.790586         -2.755311          0.000000
H             -3.460947         -3.643747          0.000000

