%NProcShared=4 
%Mem=4GB  
%Chk=H2O_H2O_3457.chk 

#p CCSD(T)/cc-pVTZ 

H2O_H2O_3457

0 1
O             -0.000000         -0.009833          0.000000
H             -0.799571         -0.580965          0.000000
H              0.799571         -0.580965          0.000000
O             -3.904722         -2.794846          0.000000
H             -4.874441         -2.953438          0.000000
H             -3.440213         -3.660721          0.000000

