%NProcShared=4 
%Mem=4GB  
%Chk=H2O_H2O_41.chk 

#p CCSD(T)/cc-pVTZ 

H2O_H2O_41

0 1
O             -0.000000         -0.009833          0.000000
H             -0.799571         -0.580965          0.000000
H              0.799571         -0.580965          0.000000
O             -1.685530         -1.202804          0.000000
H             -2.579930         -0.795921          0.000000
H             -1.780359         -2.180819          0.000000

