%NProcShared=4 
%Mem=4GB  
%Chk=H2O_H2O_1259.chk 

#p CCSD(T)/cc-pVTZ 

H2O_H2O_1259

0 1
O             -0.000000         -0.009833          0.000000
H             -0.799571         -0.580965          0.000000
H              0.799571         -0.580965          0.000000
O             -2.477693         -1.774084          0.000000
H             -3.459816         -1.804745          0.000000
H             -2.130177         -2.693181          0.000000

