%NProcShared=4 
%Mem=4GB  
%Chk=H2O_H2O_2715.chk 

#p CCSD(T)/cc-pVTZ 

H2O_H2O_2715

0 1
O             -0.000000         -0.009833          0.000000
H             -0.799571         -0.580965          0.000000
H              0.799571         -0.580965          0.000000
O             -3.421682         -2.443723          0.000000
H             -4.340779         -2.096207          0.000000
H             -3.452343         -3.425846          0.000000

