%NProcShared=4 
%Mem=4GB  
%Chk=H2O_H2O_4272.chk 

#p CCSD(T)/cc-pVTZ 

H2O_H2O_4272

0 1
O             -0.000000         -0.009833          0.000000
H             -0.799571         -0.580965          0.000000
H              0.799571         -0.580965          0.000000
O             -4.429447         -3.158263          0.000000
H             -5.100058         -2.440080          0.000000
H             -4.891328         -4.025542          0.000000

