%NProcShared=4 
%Mem=4GB  
%Chk=H2O_H2O_3130.chk 

#p CCSD(T)/cc-pVTZ 

H2O_H2O_3130

0 1
O             -0.000000         -0.009833          0.000000
H             -0.799571         -0.580965          0.000000
H              0.799571         -0.580965          0.000000
O             -3.692558         -2.644639          0.000000
H             -4.633281         -2.928448          0.000000
H             -3.119004         -3.442475          0.000000

