%NProcShared=4 
%Mem=4GB  
%Chk=H2O_H2O_3224.chk 

#p CCSD(T)/cc-pVTZ 

H2O_H2O_3224

0 1
O             -0.000000         -0.009833          0.000000
H             -0.799571         -0.580965          0.000000
H              0.799571         -0.580965          0.000000
O             -3.747917         -2.670105          0.000000
H             -4.319049         -1.870533          0.000000
H             -4.319049         -3.469676          0.000000

