%NProcShared=4 
%Mem=4GB  
%Chk=H2O_H2O_354.chk 

#p CCSD(T)/cc-pVTZ 

H2O_H2O_354

0 1
O             -0.000000         -0.009833          0.000000
H             -0.799571         -0.580965          0.000000
H              0.799571         -0.580965          0.000000
O             -1.890535         -1.358085          0.000000
H             -2.810681         -1.702811          0.000000
H             -1.266028         -2.116700          0.000000

