%NProcShared=4 
%Mem=4GB  
%Chk=H2O_H2O_1042.chk 

#p CCSD(T)/cc-pVTZ 

H2O_H2O_1042

0 1
O             -0.000000         -0.009833          0.000000
H             -0.799571         -0.580965          0.000000
H              0.799571         -0.580965          0.000000
O             -2.334989         -1.665927          0.000000
H             -3.200863         -1.201418          0.000000
H             -2.493580         -2.635646          0.000000

