%NProcShared=4 
%Mem=4GB  
%Chk=H2O_H2O_1523.chk 

#p CCSD(T)/cc-pVTZ 

H2O_H2O_1523

0 1
O             -0.000000         -0.009833          0.000000
H             -0.799571         -0.580965          0.000000
H              0.799571         -0.580965          0.000000
O             -2.644331         -1.882474          0.000000
H             -3.266534         -1.121968          0.000000
H             -3.161946         -2.717687          0.000000

