%NProcShared=4 
%Mem=4GB  
%Chk=H2O_H2O_148.chk 

#p CCSD(T)/cc-pVTZ 

H2O_H2O_148

0 1
O             -0.000000         -0.009833          0.000000
H             -0.799571         -0.580965          0.000000
H              0.799571         -0.580965          0.000000
O             -1.751742         -1.244899          0.000000
H             -2.373945         -0.484394          0.000000
H             -2.269356         -2.080113          0.000000

