%NProcShared=4 
%Mem=4GB  
%Chk=H2O_H2O_665.chk 

#p CCSD(T)/cc-pVTZ 

H2O_H2O_665

0 1
O             -0.000000         -0.009833          0.000000
H             -0.799571         -0.580965          0.000000
H              0.799571         -0.580965          0.000000
O             -2.090912         -1.493157          0.000000
H             -3.010009         -1.145641          0.000000
H             -2.121573         -2.475280          0.000000

