%NProcShared=4 
%Mem=4GB  
%Chk=H2O_H2O_517.chk 

#p CCSD(T)/cc-pVTZ 

H2O_H2O_517

0 1
O             -0.000000         -0.009833          0.000000
H             -0.799571         -0.580965          0.000000
H              0.799571         -0.580965          0.000000
O             -1.994182         -1.422489          0.000000
H             -2.860056         -0.957981          0.000000
H             -2.152773         -2.392208          0.000000

