%NProcShared=4 
%Mem=4GB  
%Chk=H2O_H2O_1837.chk 

#p CCSD(T)/cc-pVTZ 

H2O_H2O_1837

0 1
O             -0.000000         -0.009833          0.000000
H             -0.799571         -0.580965          0.000000
H              0.799571         -0.580965          0.000000
O             -2.852448         -2.039483          0.000000
H             -3.821681         -1.877952          0.000000
H             -2.690917         -3.008717          0.000000

