%NProcShared=4 
%Mem=4GB  
%Chk=H2O_H2O_2885.chk 

#p CCSD(T)/cc-pVTZ 

H2O_H2O_2885

0 1
O             -0.000000         -0.009833          0.000000
H             -0.799571         -0.580965          0.000000
H              0.799571         -0.580965          0.000000
O             -3.533094         -2.527206          0.000000
H             -4.515120         -2.493568          0.000000
H             -3.246435         -3.467064          0.000000

