%NProcShared=4 
%Mem=4GB  
%Chk=H2O_H2O_4171.chk 

#p CCSD(T)/cc-pVTZ 

H2O_H2O_4171

0 1
O             -0.000000         -0.009833          0.000000
H             -0.799571         -0.580965          0.000000
H              0.799571         -0.580965          0.000000
O             -4.364426         -3.112529          0.000000
H             -5.080573         -2.439744          0.000000
H             -4.768595         -4.008159          0.000000

