%NProcShared=4 
%Mem=4GB  
%Chk=H2O_H2O_1254.chk 

#p CCSD(T)/cc-pVTZ 

H2O_H2O_1254

0 1
O             -0.000000         -0.009833          0.000000
H             -0.799571         -0.580965          0.000000
H              0.799571         -0.580965          0.000000
O             -2.474775         -1.775406          0.000000
H             -3.394921         -2.120133          0.000000
H             -1.850268         -2.534022          0.000000

