%NProcShared=4 
%Mem=4GB  
%Chk=H2O_H2O_2579.chk 

#p CCSD(T)/cc-pVTZ 

H2O_H2O_2579

0 1
O             -0.000000         -0.009833          0.000000
H             -0.799571         -0.580965          0.000000
H              0.799571         -0.580965          0.000000
O             -3.334907         -2.389796          0.000000
H             -4.255053         -2.734523          0.000000
H             -2.710400         -3.148412          0.000000

