%NProcShared=4 
%Mem=4GB  
%Chk=H2O_H2O_886.chk 

#p CCSD(T)/cc-pVTZ 

H2O_H2O_886

0 1
O             -0.000000         -0.009833          0.000000
H             -0.799571         -0.580965          0.000000
H              0.799571         -0.580965          0.000000
O             -2.235280         -1.599417          0.000000
H             -3.213003         -1.501623          0.000000
H             -2.010704         -2.556011          0.000000

