%NProcShared=4 
%Mem=4GB  
%Chk=H2O_H2O_201.chk 

#p CCSD(T)/cc-pVTZ 

H2O_H2O_201

0 1
O             -0.000000         -0.009833          0.000000
H             -0.799571         -0.580965          0.000000
H              0.799571         -0.580965          0.000000
O             -1.791259         -1.288845          0.000000
H             -2.626472         -1.806460          0.000000
H             -1.030754         -1.911049          0.000000

