%NProcShared=4 
%Mem=4GB  
%Chk=H2O_H2O_3622.chk 

#p CCSD(T)/cc-pVTZ 

H2O_H2O_3622

0 1
O             -0.000000         -0.009833          0.000000
H             -0.799571         -0.580965          0.000000
H              0.799571         -0.580965          0.000000
O             -4.007495         -2.856864          0.000000
H             -4.678106         -2.138681          0.000000
H             -4.469376         -3.724143          0.000000

