%NProcShared=4 
%Mem=4GB  
%Chk=H2O_H2O_1872.chk 

#p CCSD(T)/cc-pVTZ 

H2O_H2O_1872

0 1
O             -0.000000         -0.009833          0.000000
H             -0.799571         -0.580965          0.000000
H              0.799571         -0.580965          0.000000
O             -2.871473         -2.045406          0.000000
H             -3.542083         -1.327223          0.000000
H             -3.333353         -2.912685          0.000000

