%NProcShared=4 
%Mem=4GB  
%Chk=H2O_H2O_4900.chk 

#p CCSD(T)/cc-pVTZ 

H2O_H2O_4900

0 1
O             -0.000000         -0.009833          0.000000
H             -0.799571         -0.580965          0.000000
H              0.799571         -0.580965          0.000000
O             -4.841649         -3.468212          0.000000
H             -5.641220         -4.039344          0.000000
H             -4.042077         -4.039344          0.000000

