%NProcShared=4 
%Mem=4GB  
%Chk=H2O_H2O_4527.chk 

#p CCSD(T)/cc-pVTZ 

H2O_H2O_4527

0 1
O             -0.000000         -0.009833          0.000000
H             -0.799571         -0.580965          0.000000
H              0.799571         -0.580965          0.000000
O             -4.599499         -3.294244          0.000000
H             -5.466778         -3.756125          0.000000
H             -3.881316         -3.964855          0.000000

