%NProcShared=4 
%Mem=4GB  
%Chk=H2O_H2O_2164.chk 

#p CCSD(T)/cc-pVTZ 

H2O_H2O_2164

0 1
O             -0.000000         -0.009833          0.000000
H             -0.799571         -0.580965          0.000000
H              0.799571         -0.580965          0.000000
O             -3.064271         -2.189216          0.000000
H             -4.004129         -1.902556          0.000000
H             -3.030633         -3.171241          0.000000

