%NProcShared=4 
%Mem=4GB  
%Chk=H2O_H2O_4448.chk 

#p CCSD(T)/cc-pVTZ 

H2O_H2O_4448

0 1
O             -0.000000         -0.009833          0.000000
H             -0.799571         -0.580965          0.000000
H              0.799571         -0.580965          0.000000
O             -4.543112         -3.238769          0.000000
H             -5.165316         -2.478263          0.000000
H             -5.060727         -4.073982          0.000000

