%NProcShared=4 
%Mem=4GB  
%Chk=H2O_H2O_259.chk 

#p CCSD(T)/cc-pVTZ 

H2O_H2O_259

0 1
O             -0.000000         -0.009833          0.000000
H             -0.799571         -0.580965          0.000000
H              0.799571         -0.580965          0.000000
O             -1.828537         -1.310394          0.000000
H             -2.810660         -1.341054          0.000000
H             -1.481021         -2.229490          0.000000

