%NProcShared=4 
%Mem=4GB  
%Chk=H2O_H2O_4335.chk 

#p CCSD(T)/cc-pVTZ 

H2O_H2O_4335

0 1
O             -0.000000         -0.009833          0.000000
H             -0.799571         -0.580965          0.000000
H              0.799571         -0.580965          0.000000
O             -4.474371         -3.199558          0.000000
H             -5.456396         -3.165919          0.000000
H             -4.187711         -4.139415          0.000000

