%NProcShared=4 
%Mem=4GB  
%Chk=H2O_H2O_109.chk 

#p CCSD(T)/cc-pVTZ 

H2O_H2O_109

0 1
O             -0.000000         -0.009833          0.000000
H             -0.799571         -0.580965          0.000000
H              0.799571         -0.580965          0.000000
O             -1.731164         -1.240840          0.000000
H             -2.713287         -1.271501          0.000000
H             -1.383648         -2.159937          0.000000

