%NProcShared=4 
%Mem=4GB  
%Chk=H2O_H2O_3971.chk 

#p CCSD(T)/cc-pVTZ 

H2O_H2O_3971

0 1
O             -0.000000         -0.009833          0.000000
H             -0.799571         -0.580965          0.000000
H              0.799571         -0.580965          0.000000
O             -4.234595         -3.019791          0.000000
H             -4.950742         -2.347006          0.000000
H             -4.638764         -3.915421          0.000000

