%NProcShared=4 
%Mem=4GB  
%Chk=H2O_H2O_1398.chk 

#p CCSD(T)/cc-pVTZ 

H2O_H2O_1398

0 1
O             -0.000000         -0.009833          0.000000
H             -0.799571         -0.580965          0.000000
H              0.799571         -0.580965          0.000000
O             -2.563186         -1.824512          0.000000
H             -3.185390         -1.064007          0.000000
H             -3.080801         -2.659726          0.000000

