%NProcShared=4 
%Mem=4GB  
%Chk=H2O_H2O_2772.chk 

#p CCSD(T)/cc-pVTZ 

H2O_H2O_2772

0 1
O             -0.000000         -0.009833          0.000000
H             -0.799571         -0.580965          0.000000
H              0.799571         -0.580965          0.000000
O             -3.455713         -2.462727          0.000000
H             -4.126324         -1.744544          0.000000
H             -3.917594         -3.330006          0.000000

