%NProcShared=4 
%Mem=4GB  
%Chk=H2O_H2O_878.chk 

#p CCSD(T)/cc-pVTZ 

H2O_H2O_878

0 1
O             -0.000000         -0.009833          0.000000
H             -0.799571         -0.580965          0.000000
H              0.799571         -0.580965          0.000000
O             -2.230715         -1.601668          0.000000
H             -3.126345         -2.005838          0.000000
H             -1.557929         -2.317815          0.000000

