%NProcShared=4 
%Mem=4GB  
%Chk=H2O_H2O_575.chk 

#p CCSD(T)/cc-pVTZ 

H2O_H2O_575

0 1
O             -0.000000         -0.009833          0.000000
H             -0.799571         -0.580965          0.000000
H              0.799571         -0.580965          0.000000
O             -2.034050         -1.462750          0.000000
H             -2.833621         -2.033882          0.000000
H             -1.234478         -2.033882          0.000000

