%NProcShared=4 
%Mem=4GB  
%Chk=H2O_H2O_4278.chk 

#p CCSD(T)/cc-pVTZ 

H2O_H2O_4278

0 1
O             -0.000000         -0.009833          0.000000
H             -0.799571         -0.580965          0.000000
H              0.799571         -0.580965          0.000000
O             -4.437845         -3.178216          0.000000
H             -5.333475         -3.582385          0.000000
H             -3.765060         -3.894363          0.000000

