%NProcShared=4 
%Mem=4GB  
%Chk=H2O_H2O_1348.chk 

#p CCSD(T)/cc-pVTZ 

H2O_H2O_1348

0 1
O             -0.000000         -0.009833          0.000000
H             -0.799571         -0.580965          0.000000
H              0.799571         -0.580965          0.000000
O             -2.530729         -1.801328          0.000000
H             -3.152932         -1.040822          0.000000
H             -3.048343         -2.636541          0.000000

