%NProcShared=4 
%Mem=4GB  
%Chk=H2O_H2O_4146.chk 

#p CCSD(T)/cc-pVTZ 

H2O_H2O_4146

0 1
O             -0.000000         -0.009833          0.000000
H             -0.799571         -0.580965          0.000000
H              0.799571         -0.580965          0.000000
O             -4.348197         -3.100937          0.000000
H             -5.064344         -2.428151          0.000000
H             -4.752366         -3.996567          0.000000

