%NProcShared=4 
%Mem=4GB  
%Chk=H2O_H2O_894.chk 

#p CCSD(T)/cc-pVTZ 

H2O_H2O_894

0 1
O             -0.000000         -0.009833          0.000000
H             -0.799571         -0.580965          0.000000
H              0.799571         -0.580965          0.000000
O             -2.238108         -1.595185          0.000000
H             -3.035944         -1.021631          0.000000
H             -2.521916         -2.535908          0.000000

