%NProcShared=4 
%Mem=4GB  
%Chk=H2O_H2O_1311.chk 

#p CCSD(T)/cc-pVTZ 

H2O_H2O_1311

0 1
O             -0.000000         -0.009833          0.000000
H             -0.799571         -0.580965          0.000000
H              0.799571         -0.580965          0.000000
O             -2.511171         -1.796486          0.000000
H             -3.488894         -1.698691          0.000000
H             -2.286595         -2.753079          0.000000

