%NProcShared=4 
%Mem=4GB  
%Chk=H2O_H2O_1628.chk 

#p CCSD(T)/cc-pVTZ 

H2O_H2O_1628

0 1
O             -0.000000         -0.009833          0.000000
H             -0.799571         -0.580965          0.000000
H              0.799571         -0.580965          0.000000
O             -2.717582         -1.949436          0.000000
H             -3.613212         -2.353605          0.000000
H             -2.044796         -2.665583          0.000000

