%NProcShared=4 
%Mem=4GB  
%Chk=H2O_H2O_3916.chk 

#p CCSD(T)/cc-pVTZ 

H2O_H2O_3916

0 1
O             -0.000000         -0.009833          0.000000
H             -0.799571         -0.580965          0.000000
H              0.799571         -0.580965          0.000000
O             -4.201009         -2.999605          0.000000
H             -5.095409         -2.592722          0.000000
H             -4.295838         -3.977620          0.000000

