%NProcShared=4 
%Mem=4GB  
%Chk=H2O_H2O_2966.chk 

#p CCSD(T)/cc-pVTZ 

H2O_H2O_2966

0 1
O             -0.000000         -0.009833          0.000000
H             -0.799571         -0.580965          0.000000
H              0.799571         -0.580965          0.000000
O             -3.584311         -2.559099          0.000000
H             -4.478711         -2.152215          0.000000
H             -3.679140         -3.537114          0.000000

