%NProcShared=4 
%Mem=4GB  
%Chk=H2O_H2O_961.chk 

#p CCSD(T)/cc-pVTZ 

H2O_H2O_961

0 1
O             -0.000000         -0.009833          0.000000
H             -0.799571         -0.580965          0.000000
H              0.799571         -0.580965          0.000000
O             -2.283966         -1.634194          0.000000
H             -3.261690         -1.536400          0.000000
H             -2.059390         -2.590788          0.000000

