%NProcShared=4 
%Mem=4GB  
%Chk=H2O_H2O_4238.chk 

#p CCSD(T)/cc-pVTZ 

H2O_H2O_4238

0 1
O             -0.000000         -0.009833          0.000000
H             -0.799571         -0.580965          0.000000
H              0.799571         -0.580965          0.000000
O             -4.410862         -3.151871          0.000000
H             -5.367456         -2.927295          0.000000
H             -4.313068         -4.129594          0.000000

