%NProcShared=4 
%Mem=4GB  
%Chk=H2O_H2O_4496.chk 

#p CCSD(T)/cc-pVTZ 

H2O_H2O_4496

0 1
O             -0.000000         -0.009833          0.000000
H             -0.799571         -0.580965          0.000000
H              0.799571         -0.580965          0.000000
O             -4.575402         -3.263228          0.000000
H             -5.291548         -2.590443          0.000000
H             -4.979571         -4.158859          0.000000

