%NProcShared=4 
%Mem=4GB  
%Chk=H2O_H2O_4232.chk 

#p CCSD(T)/cc-pVTZ 

H2O_H2O_4232

0 1
O             -0.000000         -0.009833          0.000000
H             -0.799571         -0.580965          0.000000
H              0.799571         -0.580965          0.000000
O             -4.407818         -3.154207          0.000000
H             -5.377537         -3.312798          0.000000
H             -3.943309         -4.020081          0.000000

