%NProcShared=4 
%Mem=4GB  
%Chk=H2O_H2O_4806.chk 

#p CCSD(T)/cc-pVTZ 

H2O_H2O_4806

0 1
O             -0.000000         -0.009833          0.000000
H             -0.799571         -0.580965          0.000000
H              0.799571         -0.580965          0.000000
O             -4.780497         -3.421094          0.000000
H             -5.737767         -3.642769          0.000000
H             -4.260352         -4.254734          0.000000

