%NProcShared=4 
%Mem=4GB  
%Chk=H2O_H2O_696.chk 

#p CCSD(T)/cc-pVTZ 

H2O_H2O_696

0 1
O             -0.000000         -0.009833          0.000000
H             -0.799571         -0.580965          0.000000
H              0.799571         -0.580965          0.000000
O             -2.108609         -1.501204          0.000000
H             -2.824756         -0.828419          0.000000
H             -2.512779         -2.396834          0.000000

