%NProcShared=4 
%Mem=4GB  
%Chk=H2O_H2O_2553.chk 

#p CCSD(T)/cc-pVTZ 

H2O_H2O_2553

0 1
O             -0.000000         -0.009833          0.000000
H             -0.799571         -0.580965          0.000000
H              0.799571         -0.580965          0.000000
O             -3.318051         -2.378350          0.000000
H             -4.213681         -2.782519          0.000000
H             -2.645265         -3.094497          0.000000

