%NProcShared=4 
%Mem=4GB  
%Chk=H2O_H2O_94.chk 

#p CCSD(T)/cc-pVTZ 

H2O_H2O_94

0 1
O             -0.000000         -0.009833          0.000000
H             -0.799571         -0.580965          0.000000
H              0.799571         -0.580965          0.000000
O             -1.718783         -1.224232          0.000000
H             -2.516619         -0.650679          0.000000
H             -2.002591         -2.164955          0.000000

