%NProcShared=4 
%Mem=4GB  
%Chk=H2O_H2O_410.chk 

#p CCSD(T)/cc-pVTZ 

H2O_H2O_410

0 1
O             -0.000000         -0.009833          0.000000
H             -0.799571         -0.580965          0.000000
H              0.799571         -0.580965          0.000000
O             -1.926433         -1.379572          0.000000
H             -2.908459         -1.345933          0.000000
H             -1.639774         -2.319430          0.000000

