%NProcShared=4 
%Mem=4GB  
%Chk=H2O_H2O_3319.chk 

#p CCSD(T)/cc-pVTZ 

H2O_H2O_3319

0 1
O             -0.000000         -0.009833          0.000000
H             -0.799571         -0.580965          0.000000
H              0.799571         -0.580965          0.000000
O             -3.812311         -2.719635          0.000000
H             -4.610147         -2.146081          0.000000
H             -4.096119         -3.660357          0.000000

