%NProcShared=4 
%Mem=4GB  
%Chk=H2O_H2O_1556.chk 

#p CCSD(T)/cc-pVTZ 

H2O_H2O_1556

0 1
O             -0.000000         -0.009833          0.000000
H             -0.799571         -0.580965          0.000000
H              0.799571         -0.580965          0.000000
O             -2.670740         -1.914100          0.000000
H             -3.628010         -2.135774          0.000000
H             -2.150595         -2.747740          0.000000

