%NProcShared=4 
%Mem=4GB  
%Chk=H2O_H2O_1195.chk 

#p CCSD(T)/cc-pVTZ 

H2O_H2O_1195

0 1
O             -0.000000         -0.009833          0.000000
H             -0.799571         -0.580965          0.000000
H              0.799571         -0.580965          0.000000
O             -2.433041         -1.733676          0.000000
H             -3.191657         -1.109169          0.000000
H             -2.777768         -2.653823          0.000000

