%NProcShared=4 
%Mem=4GB  
%Chk=H2O_H2O_86.chk 

#p CCSD(T)/cc-pVTZ 

H2O_H2O_86

0 1
O             -0.000000         -0.009833          0.000000
H             -0.799571         -0.580965          0.000000
H              0.799571         -0.580965          0.000000
O             -1.715955         -1.228465          0.000000
H             -2.693678         -1.130670          0.000000
H             -1.491379         -2.185058          0.000000

