%NProcShared=4 
%Mem=4GB  
%Chk=H2O_H2O_288.chk 

#p CCSD(T)/cc-pVTZ 

H2O_H2O_288

0 1
O             -0.000000         -0.009833          0.000000
H             -0.799571         -0.580965          0.000000
H              0.799571         -0.580965          0.000000
O             -1.846696         -1.320293          0.000000
H             -2.803290         -1.095717          0.000000
H             -1.748901         -2.298016          0.000000

