%NProcShared=4 
%Mem=4GB  
%Chk=H2O_H2O_3658.chk 

#p CCSD(T)/cc-pVTZ 

H2O_H2O_3658

0 1
O             -0.000000         -0.009833          0.000000
H             -0.799571         -0.580965          0.000000
H              0.799571         -0.580965          0.000000
O             -4.035121         -2.887281          0.000000
H             -5.013136         -2.982110          0.000000
H             -3.628238         -3.781682          0.000000

