%NProcShared=4 
%Mem=4GB  
%Chk=H2O_H2O_718.chk 

#p CCSD(T)/cc-pVTZ 

H2O_H2O_718

0 1
O             -0.000000         -0.009833          0.000000
H             -0.799571         -0.580965          0.000000
H              0.799571         -0.580965          0.000000
O             -2.124279         -1.514641          0.000000
H             -2.957919         -0.994496          0.000000
H             -2.345953         -2.471912          0.000000

