%NProcShared=4 
%Mem=4GB  
%Chk=H2O_H2O_762.chk 

#p CCSD(T)/cc-pVTZ 

H2O_H2O_762

0 1
O             -0.000000         -0.009833          0.000000
H             -0.799571         -0.580965          0.000000
H              0.799571         -0.580965          0.000000
O             -2.154605         -1.541016          0.000000
H             -3.123839         -1.379485          0.000000
H             -1.993074         -2.510249          0.000000

