%NProcShared=4 
%Mem=4GB  
%Chk=H2O_H2O_2263.chk 

#p CCSD(T)/cc-pVTZ 

H2O_H2O_2263

0 1
O             -0.000000         -0.009833          0.000000
H             -0.799571         -0.580965          0.000000
H              0.799571         -0.580965          0.000000
O             -3.128779         -2.236082          0.000000
H             -4.085373         -2.011506          0.000000
H             -3.030984         -3.213805          0.000000

