%NProcShared=4 
%Mem=4GB  
%Chk=H2O_H2O_2197.chk 

#p CCSD(T)/cc-pVTZ 

H2O_H2O_2197

0 1
O             -0.000000         -0.009833          0.000000
H             -0.799571         -0.580965          0.000000
H              0.799571         -0.580965          0.000000
O             -3.082448         -2.196105          0.000000
H             -3.753059         -1.477922          0.000000
H             -3.544329         -3.063384          0.000000

