%NProcShared=4 
%Mem=4GB  
%Chk=H2O_H2O_4594.chk 

#p CCSD(T)/cc-pVTZ 

H2O_H2O_4594

0 1
O             -0.000000         -0.009833          0.000000
H             -0.799571         -0.580965          0.000000
H              0.799571         -0.580965          0.000000
O             -4.639985         -3.310840          0.000000
H             -5.437821         -2.737286          0.000000
H             -4.923793         -4.251563          0.000000

