%NProcShared=4 
%Mem=4GB  
%Chk=H2O_H2O_2809.chk 

#p CCSD(T)/cc-pVTZ 

H2O_H2O_2809

0 1
O             -0.000000         -0.009833          0.000000
H             -0.799571         -0.580965          0.000000
H              0.799571         -0.580965          0.000000
O             -3.483885         -2.492804          0.000000
H             -4.466008         -2.523465          0.000000
H             -3.136369         -3.411901          0.000000

