%NProcShared=4 
%Mem=4GB  
%Chk=H2O_H2O_1956.chk 

#p CCSD(T)/cc-pVTZ 

H2O_H2O_1956

0 1
O             -0.000000         -0.009833          0.000000
H             -0.799571         -0.580965          0.000000
H              0.799571         -0.580965          0.000000
O             -2.930402         -2.099576          0.000000
H             -3.887672         -2.321251          0.000000
H             -2.410257         -2.933216          0.000000

