%NProcShared=4 
%Mem=4GB  
%Chk=H2O_H2O_113.chk 

#p CCSD(T)/cc-pVTZ 

H2O_H2O_113

0 1
O             -0.000000         -0.009833          0.000000
H             -0.799571         -0.580965          0.000000
H              0.799571         -0.580965          0.000000
O             -1.733094         -1.239147          0.000000
H             -2.689687         -1.014571          0.000000
H             -1.635299         -2.216870          0.000000

