%NProcShared=4 
%Mem=4GB  
%Chk=H2O_H2O_3242.chk 

#p CCSD(T)/cc-pVTZ 

H2O_H2O_3242

0 1
O             -0.000000         -0.009833          0.000000
H             -0.799571         -0.580965          0.000000
H              0.799571         -0.580965          0.000000
O             -3.763132         -2.686046          0.000000
H             -4.629006         -2.221537          0.000000
H             -3.921723         -3.655765          0.000000

