%NProcShared=4 
%Mem=4GB  
%Chk=H2O_H2O_2568.chk 

#p CCSD(T)/cc-pVTZ 

H2O_H2O_2568

0 1
O             -0.000000         -0.009833          0.000000
H             -0.799571         -0.580965          0.000000
H              0.799571         -0.580965          0.000000
O             -3.325217         -2.372469          0.000000
H             -4.158857         -1.852324          0.000000
H             -3.546892         -3.329739          0.000000

