%NProcShared=4 
%Mem=4GB  
%Chk=H2O_H2O_3569.chk 

#p CCSD(T)/cc-pVTZ 

H2O_H2O_3569

0 1
O             -0.000000         -0.009833          0.000000
H             -0.799571         -0.580965          0.000000
H              0.799571         -0.580965          0.000000
O             -3.974600         -2.835557          0.000000
H             -4.772436         -2.262003          0.000000
H             -4.258408         -3.776280          0.000000

