%NProcShared=4 
%Mem=4GB  
%Chk=H2O_H2O_2465.chk 

#p CCSD(T)/cc-pVTZ 

H2O_H2O_2465

0 1
O             -0.000000         -0.009833          0.000000
H             -0.799571         -0.580965          0.000000
H              0.799571         -0.580965          0.000000
O             -3.259393         -2.327800          0.000000
H             -4.178490         -1.980284          0.000000
H             -3.290054         -3.309923          0.000000

