%NProcShared=4 
%Mem=4GB  
%Chk=H2O_H2O_1543.chk 

#p CCSD(T)/cc-pVTZ 

H2O_H2O_1543

0 1
O             -0.000000         -0.009833          0.000000
H             -0.799571         -0.580965          0.000000
H              0.799571         -0.580965          0.000000
O             -2.659832         -1.897186          0.000000
H             -3.493472         -1.377041          0.000000
H             -2.881507         -2.854456          0.000000

