%NProcShared=4 
%Mem=4GB  
%Chk=H2O_H2O_868.chk 

#p CCSD(T)/cc-pVTZ 

H2O_H2O_868

0 1
O             -0.000000         -0.009833          0.000000
H             -0.799571         -0.580965          0.000000
H              0.799571         -0.580965          0.000000
O             -2.221652         -1.584195          0.000000
H             -3.055292         -1.064050          0.000000
H             -2.443327         -2.541465          0.000000

