%NProcShared=4 
%Mem=4GB  
%Chk=H2O_H2O_674.chk 

#p CCSD(T)/cc-pVTZ 

H2O_H2O_674

0 1
O             -0.000000         -0.009833          0.000000
H             -0.799571         -0.580965          0.000000
H              0.799571         -0.580965          0.000000
O             -2.092570         -1.487694          0.000000
H             -2.663701         -0.688122          0.000000
H             -2.663702         -2.287265          0.000000

