%NProcShared=4 
%Mem=4GB  
%Chk=H2O_H2O_2789.chk 

#p CCSD(T)/cc-pVTZ 

H2O_H2O_2789

0 1
O             -0.000000         -0.009833          0.000000
H             -0.799571         -0.580965          0.000000
H              0.799571         -0.580965          0.000000
O             -3.469994         -2.479022          0.000000
H             -4.409851         -2.192363          0.000000
H             -3.436355         -3.461048          0.000000

