%NProcShared=4 
%Mem=4GB  
%Chk=H2O_H2O_603.chk 

#p CCSD(T)/cc-pVTZ 

H2O_H2O_603

0 1
O             -0.000000         -0.009833          0.000000
H             -0.799571         -0.580965          0.000000
H              0.799571         -0.580965          0.000000
O             -2.052197         -1.474153          0.000000
H             -2.947827         -1.878323          0.000000
H             -1.379411         -2.190300          0.000000

