%NProcShared=4 
%Mem=4GB  
%Chk=H2O_H2O_544.chk 

#p CCSD(T)/cc-pVTZ 

H2O_H2O_544

0 1
O             -0.000000         -0.009833          0.000000
H             -0.799571         -0.580965          0.000000
H              0.799571         -0.580965          0.000000
O             -2.010903         -1.432893          0.000000
H             -2.808739         -0.859339          0.000000
H             -2.294711         -2.373616          0.000000

