%NProcShared=4 
%Mem=4GB  
%Chk=H2O_H2O_4267.chk 

#p CCSD(T)/cc-pVTZ 

H2O_H2O_4267

0 1
O             -0.000000         -0.009833          0.000000
H             -0.799571         -0.580965          0.000000
H              0.799571         -0.580965          0.000000
O             -4.428517         -3.161329          0.000000
H             -5.294391         -2.696820          0.000000
H             -4.587108         -4.131048          0.000000

