%NProcShared=4 
%Mem=4GB  
%Chk=H2O_H2O_4379.chk 

#p CCSD(T)/cc-pVTZ 

H2O_H2O_4379

0 1
O             -0.000000         -0.009833          0.000000
H             -0.799571         -0.580965          0.000000
H              0.799571         -0.580965          0.000000
O             -4.503387         -3.224439          0.000000
H             -5.423533         -3.569166          0.000000
H             -3.878880         -3.983055          0.000000

