%NProcShared=4 
%Mem=4GB  
%Chk=H2O_H2O_4633.chk 

#p CCSD(T)/cc-pVTZ 

H2O_H2O_4633

0 1
O             -0.000000         -0.009833          0.000000
H             -0.799571         -0.580965          0.000000
H              0.799571         -0.580965          0.000000
O             -4.668048         -3.339380          0.000000
H             -5.646063         -3.434209          0.000000
H             -4.261164         -4.233780          0.000000

