%NProcShared=4 
%Mem=4GB  
%Chk=H2O_H2O_462.chk 

#p CCSD(T)/cc-pVTZ 

H2O_H2O_462

0 1
O             -0.000000         -0.009833          0.000000
H             -0.799571         -0.580965          0.000000
H              0.799571         -0.580965          0.000000
O             -1.959858         -1.401909          0.000000
H             -2.929092         -1.240378          0.000000
H             -1.798327         -2.371142          0.000000

