%NProcShared=4 
%Mem=4GB  
%Chk=H2O_H2O_2238.chk 

#p CCSD(T)/cc-pVTZ 

H2O_H2O_2238

0 1
O             -0.000000         -0.009833          0.000000
H             -0.799571         -0.580965          0.000000
H              0.799571         -0.580965          0.000000
O             -3.112550         -2.224490          0.000000
H             -4.069144         -1.999914          0.000000
H             -3.014756         -3.202213          0.000000

