%NProcShared=4 
%Mem=4GB  
%Chk=H2O_H2O_3423.chk 

#p CCSD(T)/cc-pVTZ 

H2O_H2O_3423

0 1
O             -0.000000         -0.009833          0.000000
H             -0.799571         -0.580965          0.000000
H              0.799571         -0.580965          0.000000
O             -3.877727         -2.763486          0.000000
H             -4.499931         -2.002980          0.000000
H             -4.395342         -3.598699          0.000000

