%NProcShared=4 
%Mem=4GB  
%Chk=H2O_H2O_4466.chk 

#p CCSD(T)/cc-pVTZ 

H2O_H2O_4466

0 1
O             -0.000000         -0.009833          0.000000
H             -0.799571         -0.580965          0.000000
H              0.799571         -0.580965          0.000000
O             -4.558045         -3.254635          0.000000
H             -5.452445         -2.847751          0.000000
H             -4.652874         -4.232650          0.000000

