%NProcShared=4 
%Mem=4GB  
%Chk=H2O_H2O_694.chk 

#p CCSD(T)/cc-pVTZ 

H2O_H2O_694

0 1
O             -0.000000         -0.009833          0.000000
H             -0.799571         -0.580965          0.000000
H              0.799571         -0.580965          0.000000
O             -2.108276         -1.502447          0.000000
H             -2.906112         -0.928893          0.000000
H             -2.392085         -2.443169          0.000000

