%NProcShared=4 
%Mem=4GB  
%Chk=H2O_H2O_2939.chk 

#p CCSD(T)/cc-pVTZ 

H2O_H2O_2939

0 1
O             -0.000000         -0.009833          0.000000
H             -0.799571         -0.580965          0.000000
H              0.799571         -0.580965          0.000000
O             -3.567367         -2.548576          0.000000
H             -4.507225         -2.261916          0.000000
H             -3.533728         -3.530601          0.000000

