%NProcShared=4 
%Mem=4GB  
%Chk=H2O_H2O_1027.chk 

#p CCSD(T)/cc-pVTZ 

H2O_H2O_1027

0 1
O             -0.000000         -0.009833          0.000000
H             -0.799571         -0.580965          0.000000
H              0.799571         -0.580965          0.000000
O             -2.327453         -1.671327          0.000000
H             -3.194732         -2.133208          0.000000
H             -1.609270         -2.341938          0.000000

