%NProcShared=4 
%Mem=4GB  
%Chk=H2O_H2O_2874.chk 

#p CCSD(T)/cc-pVTZ 

H2O_H2O_2874

0 1
O             -0.000000         -0.009833          0.000000
H             -0.799571         -0.580965          0.000000
H              0.799571         -0.580965          0.000000
O             -3.520713         -2.507813          0.000000
H             -4.091845         -1.708242          0.000000
H             -4.091845         -3.307384          0.000000

