%NProcShared=4 
%Mem=4GB  
%Chk=H2O_H2O_4443.chk 

#p CCSD(T)/cc-pVTZ 

H2O_H2O_4443

0 1
O             -0.000000         -0.009833          0.000000
H             -0.799571         -0.580965          0.000000
H              0.799571         -0.580965          0.000000
O             -4.542385         -3.241889          0.000000
H             -5.376024         -2.721744          0.000000
H             -4.764059         -4.199159          0.000000

