%NProcShared=4 
%Mem=4GB  
%Chk=H2O_H2O_2022.chk 

#p CCSD(T)/cc-pVTZ 

H2O_H2O_2022

0 1
O             -0.000000         -0.009833          0.000000
H             -0.799571         -0.580965          0.000000
H              0.799571         -0.580965          0.000000
O             -2.968846         -2.114959          0.000000
H             -3.639457         -1.396776          0.000000
H             -3.430727         -2.982238          0.000000

