%NProcShared=4 
%Mem=4GB  
%Chk=H2O_H2O_4437.chk 

#p CCSD(T)/cc-pVTZ 

H2O_H2O_4437

0 1
O             -0.000000         -0.009833          0.000000
H             -0.799571         -0.580965          0.000000
H              0.799571         -0.580965          0.000000
O             -4.540253         -3.245079          0.000000
H             -5.509487         -3.083548          0.000000
H             -4.378722         -4.214312          0.000000

