%NProcShared=4 
%Mem=4GB  
%Chk=H2O_H2O_4645.chk 

#p CCSD(T)/cc-pVTZ 

H2O_H2O_4645

0 1
O             -0.000000         -0.009833          0.000000
H             -0.799571         -0.580965          0.000000
H              0.799571         -0.580965          0.000000
O             -4.672629         -3.333409          0.000000
H             -5.431244         -2.708902          0.000000
H             -5.017356         -4.253555          0.000000

