%NProcShared=4 
%Mem=4GB  
%Chk=H2O_H2O_1771.chk 

#p CCSD(T)/cc-pVTZ 

H2O_H2O_1771

0 1
O             -0.000000         -0.009833          0.000000
H             -0.799571         -0.580965          0.000000
H              0.799571         -0.580965          0.000000
O             -2.806452         -1.999672          0.000000
H             -3.522598         -1.326886          0.000000
H             -3.210621         -2.895302          0.000000

