%NProcShared=4 
%Mem=4GB  
%Chk=H2O_H2O_4024.chk 

#p CCSD(T)/cc-pVTZ 

H2O_H2O_4024

0 1
O             -0.000000         -0.009833          0.000000
H             -0.799571         -0.580965          0.000000
H              0.799571         -0.580965          0.000000
O             -4.267242         -3.041057          0.000000
H             -4.838374         -2.241486          0.000000
H             -4.838374         -3.840629          0.000000

