%NProcShared=4 
%Mem=4GB  
%Chk=H2O_H2O_209.chk 

#p CCSD(T)/cc-pVTZ 

H2O_H2O_209

0 1
O             -0.000000         -0.009833          0.000000
H             -0.799571         -0.580965          0.000000
H              0.799571         -0.580965          0.000000
O             -1.796079         -1.287209          0.000000
H             -2.778202         -1.317870          0.000000
H             -1.448564         -2.206306          0.000000

