%NProcShared=4 
%Mem=4GB  
%Chk=H2O_H2O_3776.chk 

#p CCSD(T)/cc-pVTZ 

H2O_H2O_3776

0 1
O             -0.000000         -0.009833          0.000000
H             -0.799571         -0.580965          0.000000
H              0.799571         -0.580965          0.000000
O             -4.111992         -2.946539          0.000000
H             -4.947205         -3.464153          0.000000
H             -3.351486         -3.568742          0.000000

