%NProcShared=4 
%Mem=4GB  
%Chk=H2O_H2O_3838.chk 

#p CCSD(T)/cc-pVTZ 

H2O_H2O_3838

0 1
O             -0.000000         -0.009833          0.000000
H             -0.799571         -0.580965          0.000000
H              0.799571         -0.580965          0.000000
O             -4.151199         -2.966395          0.000000
H             -5.107793         -2.741819          0.000000
H             -4.053405         -3.944118          0.000000

