%NProcShared=4 
%Mem=4GB  
%Chk=H2O_H2O_497.chk 

#p CCSD(T)/cc-pVTZ 

H2O_H2O_497

0 1
O             -0.000000         -0.009833          0.000000
H             -0.799571         -0.580965          0.000000
H              0.799571         -0.580965          0.000000
O             -1.978883         -1.407831          0.000000
H             -2.649494         -0.689648          0.000000
H             -2.440764         -2.275110          0.000000

