%NProcShared=4 
%Mem=4GB  
%Chk=H2O_H2O_2985.chk 

#p CCSD(T)/cc-pVTZ 

H2O_H2O_2985

0 1
O             -0.000000         -0.009833          0.000000
H             -0.799571         -0.580965          0.000000
H              0.799571         -0.580965          0.000000
O             -3.598010         -2.573576          0.000000
H             -4.580036         -2.539937          0.000000
H             -3.311350         -3.513433          0.000000

