%NProcShared=4 
%Mem=4GB  
%Chk=H2O_H2O_270.chk 

#p CCSD(T)/cc-pVTZ 

H2O_H2O_270

0 1
O             -0.000000         -0.009833          0.000000
H             -0.799571         -0.580965          0.000000
H              0.799571         -0.580965          0.000000
O             -1.832572         -1.304763          0.000000
H             -2.591187         -0.680256          0.000000
H             -2.177299         -2.224909          0.000000

