%NProcShared=4 
%Mem=4GB  
%Chk=H2O_H2O_3149.chk 

#p CCSD(T)/cc-pVTZ 

H2O_H2O_3149

0 1
O             -0.000000         -0.009833          0.000000
H             -0.799571         -0.580965          0.000000
H              0.799571         -0.580965          0.000000
O             -3.699231         -2.635328          0.000000
H             -4.270362         -1.835757          0.000000
H             -4.270363         -3.434899          0.000000

