%NProcShared=4 
%Mem=4GB  
%Chk=H2O_H2O_3983.chk 

#p CCSD(T)/cc-pVTZ 

H2O_H2O_3983

0 1
O             -0.000000         -0.009833          0.000000
H             -0.799571         -0.580965          0.000000
H              0.799571         -0.580965          0.000000
O             -4.246096         -3.037981          0.000000
H             -5.224112         -3.132810          0.000000
H             -3.839213         -3.932381          0.000000

