%NProcShared=4 
%Mem=4GB  
%Chk=H2O_H2O_2439.chk 

#p CCSD(T)/cc-pVTZ 

H2O_H2O_2439

0 1
O             -0.000000         -0.009833          0.000000
H             -0.799571         -0.580965          0.000000
H              0.799571         -0.580965          0.000000
O             -3.242789         -2.316731          0.000000
H             -4.182647         -2.030071          0.000000
H             -3.209151         -3.298756          0.000000

