%NProcShared=4 
%Mem=4GB  
%Chk=H2O_H2O_1904.chk 

#p CCSD(T)/cc-pVTZ 

H2O_H2O_1904

0 1
O             -0.000000         -0.009833          0.000000
H             -0.799571         -0.580965          0.000000
H              0.799571         -0.580965          0.000000
O             -2.896726         -2.076805          0.000000
H             -3.816873         -2.421532          0.000000
H             -2.272219         -2.835420          0.000000

