%NProcShared=4 
%Mem=4GB  
%Chk=H2O_H2O_3251.chk 

#p CCSD(T)/cc-pVTZ 

H2O_H2O_3251

0 1
O             -0.000000         -0.009833          0.000000
H             -0.799571         -0.580965          0.000000
H              0.799571         -0.580965          0.000000
O             -3.771185         -2.703101          0.000000
H             -4.606398         -3.220716          0.000000
H             -3.010679         -3.325305          0.000000

