%NProcShared=4 
%Mem=4GB  
%Chk=H2O_H2O_3369.chk 

#p CCSD(T)/cc-pVTZ 

H2O_H2O_3369

0 1
O             -0.000000         -0.009833          0.000000
H             -0.799571         -0.580965          0.000000
H              0.799571         -0.580965          0.000000
O             -3.844769         -2.742819          0.000000
H             -4.642605         -2.169265          0.000000
H             -4.128577         -3.683542          0.000000

