%NProcShared=4 
%Mem=4GB  
%Chk=H2O_H2O_3381.chk 

#p CCSD(T)/cc-pVTZ 

H2O_H2O_3381

0 1
O             -0.000000         -0.009833          0.000000
H             -0.799571         -0.580965          0.000000
H              0.799571         -0.580965          0.000000
O             -3.855449         -2.760335          0.000000
H             -4.812720         -2.982010          0.000000
H             -3.335304         -3.593975          0.000000

