%NProcShared=4 
%Mem=4GB  
%Chk=H2O_H2O_1717.chk 

#p CCSD(T)/cc-pVTZ 

H2O_H2O_1717

0 1
O             -0.000000         -0.009833          0.000000
H             -0.799571         -0.580965          0.000000
H              0.799571         -0.580965          0.000000
O             -2.773169         -1.978918          0.000000
H             -3.639043         -1.514409          0.000000
H             -2.931760         -2.948637          0.000000

