%NProcShared=4 
%Mem=4GB  
%Chk=H2O_H2O_1059.chk 

#p CCSD(T)/cc-pVTZ 

H2O_H2O_1059

0 1
O             -0.000000         -0.009833          0.000000
H             -0.799571         -0.580965          0.000000
H              0.799571         -0.580965          0.000000
O             -2.347862         -1.681346          0.000000
H             -3.329985         -1.712007          0.000000
H             -2.000346         -2.600443          0.000000

