%NProcShared=4 
%Mem=4GB  
%Chk=H2O_H2O_3761.chk 

#p CCSD(T)/cc-pVTZ 

H2O_H2O_3761

0 1
O             -0.000000         -0.009833          0.000000
H             -0.799571         -0.580965          0.000000
H              0.799571         -0.580965          0.000000
O             -4.101603         -2.932528          0.000000
H             -5.079326         -2.834733          0.000000
H             -3.877027         -3.889121          0.000000

