%NProcShared=4 
%Mem=4GB  
%Chk=H2O_H2O_286.chk 

#p CCSD(T)/cc-pVTZ 

H2O_H2O_286

0 1
O             -0.000000         -0.009833          0.000000
H             -0.799571         -0.580965          0.000000
H              0.799571         -0.580965          0.000000
O             -1.845786         -1.321203          0.000000
H             -2.823509         -1.223408          0.000000
H             -1.621210         -2.277797          0.000000

