%NProcShared=4 
%Mem=4GB  
%Chk=H2O_H2O_424.chk 

#p CCSD(T)/cc-pVTZ 

H2O_H2O_424

0 1
O             -0.000000         -0.009833          0.000000
H             -0.799571         -0.580965          0.000000
H              0.799571         -0.580965          0.000000
O             -1.930280         -1.371771          0.000000
H             -2.501412         -0.572200          0.000000
H             -2.501412         -2.171342          0.000000

