%NProcShared=4 
%Mem=4GB  
%Chk=H2O_H2O_2443.chk 

#p CCSD(T)/cc-pVTZ 

H2O_H2O_2443

0 1
O             -0.000000         -0.009833          0.000000
H             -0.799571         -0.580965          0.000000
H              0.799571         -0.580965          0.000000
O             -3.244073         -2.314508          0.000000
H             -4.077713         -1.794363          0.000000
H             -3.465747         -3.271778          0.000000

