%NProcShared=4 
%Mem=4GB  
%Chk=H2O_H2O_4863.chk 

#p CCSD(T)/cc-pVTZ 

H2O_H2O_4863

0 1
O             -0.000000         -0.009833          0.000000
H             -0.799571         -0.580965          0.000000
H              0.799571         -0.580965          0.000000
O             -4.816584         -3.441678          0.000000
H             -5.773178         -3.217102          0.000000
H             -4.718790         -4.419401          0.000000

