%NProcShared=4 
%Mem=4GB  
%Chk=H2O_H2O_3947.chk 

#p CCSD(T)/cc-pVTZ 

H2O_H2O_3947

0 1
O             -0.000000         -0.009833          0.000000
H             -0.799571         -0.580965          0.000000
H              0.799571         -0.580965          0.000000
O             -4.218471         -3.007564          0.000000
H             -4.889082         -2.289381          0.000000
H             -4.680352         -3.874842          0.000000

