%NProcShared=4 
%Mem=4GB  
%Chk=H2O_H2O_4042.chk 

#p CCSD(T)/cc-pVTZ 

H2O_H2O_4042

0 1
O             -0.000000         -0.009833          0.000000
H             -0.799571         -0.580965          0.000000
H              0.799571         -0.580965          0.000000
O             -4.282457         -3.056999          0.000000
H             -5.148331         -2.592490          0.000000
H             -4.441048         -4.026718          0.000000

