%NProcShared=4 
%Mem=4GB  
%Chk=H2O_H2O_177.chk 

#p CCSD(T)/cc-pVTZ 

H2O_H2O_177

0 1
O             -0.000000         -0.009833          0.000000
H             -0.799571         -0.580965          0.000000
H              0.799571         -0.580965          0.000000
O             -1.775671         -1.277190          0.000000
H             -2.642949         -1.739071          0.000000
H             -1.057487         -1.947801          0.000000

