%NProcShared=4 
%Mem=4GB  
%Chk=H2O_H2O_4679.chk 

#p CCSD(T)/cc-pVTZ 

H2O_H2O_4679

0 1
O             -0.000000         -0.009833          0.000000
H             -0.799571         -0.580965          0.000000
H              0.799571         -0.580965          0.000000
O             -4.698134         -3.363546          0.000000
H             -5.618280         -3.708273          0.000000
H             -4.073627         -4.122162          0.000000

