%NProcShared=4 
%Mem=4GB  
%Chk=H2O_H2O_559.chk 

#p CCSD(T)/cc-pVTZ 

H2O_H2O_559

0 1
O             -0.000000         -0.009833          0.000000
H             -0.799571         -0.580965          0.000000
H              0.799571         -0.580965          0.000000
O             -2.023284         -1.449501          0.000000
H             -3.005407         -1.480161          0.000000
H             -1.675768         -2.368598          0.000000

