%NProcShared=4 
%Mem=4GB  
%Chk=H2O_H2O_2759.chk 

#p CCSD(T)/cc-pVTZ 

H2O_H2O_2759

0 1
O             -0.000000         -0.009833          0.000000
H             -0.799571         -0.580965          0.000000
H              0.799571         -0.580965          0.000000
O             -3.451427         -2.469620          0.000000
H             -4.433550         -2.500281          0.000000
H             -3.103911         -3.388717          0.000000

