%NProcShared=4 
%Mem=4GB  
%Chk=H2O_H2O_4744.chk 

#p CCSD(T)/cc-pVTZ 

H2O_H2O_4744

0 1
O             -0.000000         -0.009833          0.000000
H             -0.799571         -0.580965          0.000000
H              0.799571         -0.580965          0.000000
O             -4.737358         -3.380394          0.000000
H             -5.535194         -2.806840          0.000000
H             -5.021166         -4.321116          0.000000

