%NProcShared=4 
%Mem=4GB  
%Chk=H2O_H2O_1764.chk 

#p CCSD(T)/cc-pVTZ 

H2O_H2O_1764

0 1
O             -0.000000         -0.009833          0.000000
H             -0.799571         -0.580965          0.000000
H              0.799571         -0.580965          0.000000
O             -2.804609         -2.003739          0.000000
H             -3.744467         -1.717080          0.000000
H             -2.770970         -2.985765          0.000000

