%NProcShared=4 
%Mem=4GB  
%Chk=H2O_H2O_4055.chk 

#p CCSD(T)/cc-pVTZ 

H2O_H2O_4055

0 1
O             -0.000000         -0.009833          0.000000
H             -0.799571         -0.580965          0.000000
H              0.799571         -0.580965          0.000000
O             -4.293028         -3.073553          0.000000
H             -5.233750         -3.357361          0.000000
H             -3.719474         -3.871389          0.000000

