%NProcShared=4 
%Mem=4GB  
%Chk=H2O_H2O_2594.chk 

#p CCSD(T)/cc-pVTZ 

H2O_H2O_2594

0 1
O             -0.000000         -0.009833          0.000000
H             -0.799571         -0.580965          0.000000
H              0.799571         -0.580965          0.000000
O             -3.341673         -2.383459          0.000000
H             -4.139509         -1.809905          0.000000
H             -3.625481         -3.324181          0.000000

