%NProcShared=4 
%Mem=4GB  
%Chk=H2O_H2O_1113.chk 

#p CCSD(T)/cc-pVTZ 

H2O_H2O_1113

0 1
O             -0.000000         -0.009833          0.000000
H             -0.799571         -0.580965          0.000000
H              0.799571         -0.580965          0.000000
O             -2.382249         -1.702838          0.000000
H             -3.338843         -1.478262          0.000000
H             -2.284455         -2.680561          0.000000

