%NProcShared=4 
%Mem=4GB  
%Chk=H2O_H2O_3466.chk 

#p CCSD(T)/cc-pVTZ 

H2O_H2O_3466

0 1
O             -0.000000         -0.009833          0.000000
H             -0.799571         -0.580965          0.000000
H              0.799571         -0.580965          0.000000
O             -3.908889         -2.790944          0.000000
H             -4.803289         -2.384061          0.000000
H             -4.003718         -3.768959          0.000000

