%NProcShared=4 
%Mem=4GB  
%Chk=H2O_H2O_3628.chk 

#p CCSD(T)/cc-pVTZ 

H2O_H2O_3628

0 1
O             -0.000000         -0.009833          0.000000
H             -0.799571         -0.580965          0.000000
H              0.799571         -0.580965          0.000000
O             -4.015894         -2.876817          0.000000
H             -4.911524         -3.280986          0.000000
H             -3.343108         -3.592964          0.000000

