%NProcShared=4 
%Mem=4GB  
%Chk=H2O_H2O_686.chk 

#p CCSD(T)/cc-pVTZ 

H2O_H2O_686

0 1
O             -0.000000         -0.009833          0.000000
H             -0.799571         -0.580965          0.000000
H              0.799571         -0.580965          0.000000
O             -2.105449         -1.506679          0.000000
H             -3.083172         -1.408885          0.000000
H             -1.880872         -2.463273          0.000000

