%NProcShared=4 
%Mem=4GB  
%Chk=H2O_H2O_3952.chk 

#p CCSD(T)/cc-pVTZ 

H2O_H2O_3952

0 1
O             -0.000000         -0.009833          0.000000
H             -0.799571         -0.580965          0.000000
H              0.799571         -0.580965          0.000000
O             -4.226234         -3.027622          0.000000
H             -5.093513         -3.489503          0.000000
H             -3.508051         -3.698233          0.000000

