%NProcShared=4 
%Mem=4GB  
%Chk=H2O_H2O_3209.chk 

#p CCSD(T)/cc-pVTZ 

H2O_H2O_3209

0 1
O             -0.000000         -0.009833          0.000000
H             -0.799571         -0.580965          0.000000
H              0.799571         -0.580965          0.000000
O             -3.743547         -2.678281          0.000000
H             -4.725670         -2.708942          0.000000
H             -3.396032         -3.597378          0.000000

