%NProcShared=4 
%Mem=4GB  
%Chk=H2O_H2O_3015.chk 

#p CCSD(T)/cc-pVTZ 

H2O_H2O_3015

0 1
O             -0.000000         -0.009833          0.000000
H             -0.799571         -0.580965          0.000000
H              0.799571         -0.580965          0.000000
O             -3.616429         -2.582830          0.000000
H             -4.535526         -2.235314          0.000000
H             -3.647090         -3.564953          0.000000

