%NProcShared=4 
%Mem=4GB  
%Chk=H2O_H2O_1683.chk 

#p CCSD(T)/cc-pVTZ 

H2O_H2O_1683

0 1
O             -0.000000         -0.009833          0.000000
H             -0.799571         -0.580965          0.000000
H              0.799571         -0.580965          0.000000
O             -2.753038         -1.971492          0.000000
H             -3.731053         -2.066321          0.000000
H             -2.346155         -2.865893          0.000000

