%NProcShared=4 
%Mem=4GB  
%Chk=H2O_H2O_2855.chk 

#p CCSD(T)/cc-pVTZ 

H2O_H2O_2855

0 1
O             -0.000000         -0.009833          0.000000
H             -0.799571         -0.580965          0.000000
H              0.799571         -0.580965          0.000000
O             -3.514040         -2.517124          0.000000
H             -4.454763         -2.800933          0.000000
H             -2.940486         -3.314960          0.000000

