%NProcShared=4 
%Mem=4GB  
%Chk=H2O_H2O_4428.chk 

#p CCSD(T)/cc-pVTZ 

H2O_H2O_4428

0 1
O             -0.000000         -0.009833          0.000000
H             -0.799571         -0.580965          0.000000
H              0.799571         -0.580965          0.000000
O             -4.535218         -3.247770          0.000000
H             -5.430848         -3.651939          0.000000
H             -3.862433         -3.963916          0.000000

