%NProcShared=4 
%Mem=4GB  
%Chk=H2O_H2O_3341.chk 

#p CCSD(T)/cc-pVTZ 

H2O_H2O_3341

0 1
O             -0.000000         -0.009833          0.000000
H             -0.799571         -0.580965          0.000000
H              0.799571         -0.580965          0.000000
O             -3.827744         -2.732983          0.000000
H             -4.722145         -2.326099          0.000000
H             -3.922573         -3.710998          0.000000

