%NProcShared=4 
%Mem=4GB  
%Chk=H2O_H2O_3281.chk 

#p CCSD(T)/cc-pVTZ 

H2O_H2O_3281

0 1
O             -0.000000         -0.009833          0.000000
H             -0.799571         -0.580965          0.000000
H              0.799571         -0.580965          0.000000
O             -3.790534         -2.713966          0.000000
H             -4.747804         -2.935640          0.000000
H             -3.270389         -3.547606          0.000000

