%NProcShared=4 
%Mem=4GB  
%Chk=H2O_H2O_648.chk 

#p CCSD(T)/cc-pVTZ 

H2O_H2O_648

0 1
O             -0.000000         -0.009833          0.000000
H             -0.799571         -0.580965          0.000000
H              0.799571         -0.580965          0.000000
O             -2.076320         -1.476745          0.000000
H             -2.698523         -0.716239          0.000000
H             -2.593934         -2.311958          0.000000

