%NProcShared=4 
%Mem=4GB  
%Chk=H2O_H2O_1448.chk 

#p CCSD(T)/cc-pVTZ 

H2O_H2O_1448

0 1
O             -0.000000         -0.009833          0.000000
H             -0.799571         -0.580965          0.000000
H              0.799571         -0.580965          0.000000
O             -2.595644         -1.847697          0.000000
H             -3.217848         -1.087191          0.000000
H             -3.113259         -2.682910          0.000000

