%NProcShared=4 
%Mem=4GB  
%Chk=H2O_H2O_738.chk 

#p CCSD(T)/cc-pVTZ 

H2O_H2O_738

0 1
O             -0.000000         -0.009833          0.000000
H             -0.799571         -0.580965          0.000000
H              0.799571         -0.580965          0.000000
O             -2.138816         -1.528954          0.000000
H             -3.095410         -1.304378          0.000000
H             -2.041022         -2.506677          0.000000

