%NProcShared=4 
%Mem=4GB  
%Chk=H2O_H2O_4425.chk 

#p CCSD(T)/cc-pVTZ 

H2O_H2O_4425

0 1
O             -0.000000         -0.009833          0.000000
H             -0.799571         -0.580965          0.000000
H              0.799571         -0.580965          0.000000
O             -4.533300         -3.247959          0.000000
H             -5.332871         -3.819091          0.000000
H             -3.733728         -3.819091          0.000000

