%NProcShared=4 
%Mem=4GB  
%Chk=H2O_H2O_2946.chk 

#p CCSD(T)/cc-pVTZ 

H2O_H2O_2946

0 1
O             -0.000000         -0.009833          0.000000
H             -0.799571         -0.580965          0.000000
H              0.799571         -0.580965          0.000000
O             -3.569210         -2.544508          0.000000
H             -4.285357         -1.871723          0.000000
H             -3.973379         -3.440138          0.000000

