%NProcShared=4 
%Mem=4GB  
%Chk=H2O_H2O_2058.chk 

#p CCSD(T)/cc-pVTZ 

H2O_H2O_2058

0 1
O             -0.000000         -0.009833          0.000000
H             -0.799571         -0.580965          0.000000
H              0.799571         -0.580965          0.000000
O             -2.996471         -2.145376          0.000000
H             -3.974486         -2.240205          0.000000
H             -2.589588         -3.039777          0.000000

