%NProcShared=4 
%Mem=4GB  
%Chk=H2O_H2O_3836.chk 

#p CCSD(T)/cc-pVTZ 

H2O_H2O_3836

0 1
O             -0.000000         -0.009833          0.000000
H             -0.799571         -0.580965          0.000000
H              0.799571         -0.580965          0.000000
O             -4.150290         -2.967304          0.000000
H             -5.128013         -2.869510          0.000000
H             -3.925714         -3.923898          0.000000

