%NProcShared=4 
%Mem=4GB  
%Chk=H2O_H2O_2287.chk 

#p CCSD(T)/cc-pVTZ 

H2O_H2O_2287

0 1
O             -0.000000         -0.009833          0.000000
H             -0.799571         -0.580965          0.000000
H              0.799571         -0.580965          0.000000
O             -3.144568         -2.248144          0.000000
H             -4.113802         -2.086613          0.000000
H             -2.983037         -3.217378          0.000000

