%NProcShared=4 
%Mem=4GB  
%Chk=H2O_H2O_1558.chk 

#p CCSD(T)/cc-pVTZ 

H2O_H2O_1558

0 1
O             -0.000000         -0.009833          0.000000
H             -0.799571         -0.580965          0.000000
H              0.799571         -0.580965          0.000000
O             -2.671893         -1.913531          0.000000
H             -3.649908         -2.008360          0.000000
H             -2.265010         -2.807931          0.000000

