%NProcShared=4 
%Mem=4GB  
%Chk=H2O_H2O_2957.chk 

#p CCSD(T)/cc-pVTZ 

H2O_H2O_2957

0 1
O             -0.000000         -0.009833          0.000000
H             -0.799571         -0.580965          0.000000
H              0.799571         -0.580965          0.000000
O             -3.580144         -2.563001          0.000000
H             -4.549863         -2.721592          0.000000
H             -3.115636         -3.428875          0.000000

