%NProcShared=4 
%Mem=4GB  
%Chk=H2O_H2O_1380.chk 

#p CCSD(T)/cc-pVTZ 

H2O_H2O_1380

0 1
O             -0.000000         -0.009833          0.000000
H             -0.799571         -0.580965          0.000000
H              0.799571         -0.580965          0.000000
O             -2.556535         -1.833181          0.000000
H             -3.497258         -2.116989          0.000000
H             -1.982981         -2.631017          0.000000

