%NProcShared=4 
%Mem=4GB  
%Chk=H2O_H2O_3029.chk 

#p CCSD(T)/cc-pVTZ 

H2O_H2O_3029

0 1
O             -0.000000         -0.009833          0.000000
H             -0.799571         -0.580965          0.000000
H              0.799571         -0.580965          0.000000
O             -3.627027         -2.598457          0.000000
H             -4.547173         -2.943184          0.000000
H             -3.002520         -3.357072          0.000000

