%NProcShared=4 
%Mem=4GB  
%Chk=H2O_H2O_3877.chk 

#p CCSD(T)/cc-pVTZ 

H2O_H2O_3877

0 1
O             -0.000000         -0.009833          0.000000
H             -0.799571         -0.580965          0.000000
H              0.799571         -0.580965          0.000000
O             -4.177548         -2.992845          0.000000
H             -5.044826         -3.454726          0.000000
H             -3.459364         -3.663456          0.000000

