%NProcShared=4 
%Mem=4GB  
%Chk=H2O_H2O_3652.chk 

#p CCSD(T)/cc-pVTZ 

H2O_H2O_3652

0 1
O             -0.000000         -0.009833          0.000000
H             -0.799571         -0.580965          0.000000
H              0.799571         -0.580965          0.000000
O             -4.031488         -2.888514          0.000000
H             -4.898766         -3.350395          0.000000
H             -3.313304         -3.559125          0.000000

