%NProcShared=4 
%Mem=4GB  
%Chk=H2O_H2O_4675.chk 

#p CCSD(T)/cc-pVTZ 

H2O_H2O_4675

0 1
O             -0.000000         -0.009833          0.000000
H             -0.799571         -0.580965          0.000000
H              0.799571         -0.580965          0.000000
O             -4.695589         -3.363881          0.000000
H             -5.495160         -3.935013          0.000000
H             -3.896017         -3.935013          0.000000

