%NProcShared=4 
%Mem=4GB  
%Chk=H2O_H2O_2393.chk 

#p CCSD(T)/cc-pVTZ 

H2O_H2O_2393

0 1
O             -0.000000         -0.009833          0.000000
H             -0.799571         -0.580965          0.000000
H              0.799571         -0.580965          0.000000
O             -3.211615         -2.291323          0.000000
H             -4.045255         -1.771178          0.000000
H             -3.433289         -3.248593          0.000000

