%NProcShared=4 
%Mem=4GB  
%Chk=H2O_H2O_1723.chk 

#p CCSD(T)/cc-pVTZ 

H2O_H2O_1723

0 1
O             -0.000000         -0.009833          0.000000
H             -0.799571         -0.580965          0.000000
H              0.799571         -0.580965          0.000000
O             -2.774162         -1.975212          0.000000
H             -3.396366         -1.214706          0.000000
H             -3.291777         -2.810425          0.000000

