%NProcShared=4 
%Mem=4GB  
%Chk=H2O_H2O_2511.chk 

#p CCSD(T)/cc-pVTZ 

H2O_H2O_2511

0 1
O             -0.000000         -0.009833          0.000000
H             -0.799571         -0.580965          0.000000
H              0.799571         -0.580965          0.000000
O             -3.290158         -2.352914          0.000000
H             -4.267881         -2.255120          0.000000
H             -3.065582         -3.309508          0.000000

