%NProcShared=4 
%Mem=4GB  
%Chk=H2O_H2O_87.chk 

#p CCSD(T)/cc-pVTZ 

H2O_H2O_87

0 1
O             -0.000000         -0.009833          0.000000
H             -0.799571         -0.580965          0.000000
H              0.799571         -0.580965          0.000000
O             -1.716425         -1.228025          0.000000
H             -2.685658         -1.066494          0.000000
H             -1.554894         -2.197258          0.000000

