%NProcShared=4 
%Mem=4GB  
%Chk=H2O_H2O_3729.chk 

#p CCSD(T)/cc-pVTZ 

H2O_H2O_3729

0 1
O             -0.000000         -0.009833          0.000000
H             -0.799571         -0.580965          0.000000
H              0.799571         -0.580965          0.000000
O             -4.081436         -2.923040          0.000000
H             -5.001582         -3.267767          0.000000
H             -3.456929         -3.681656          0.000000

