%NProcShared=4 
%Mem=4GB  
%Chk=H2O_H2O_4918.chk 

#p CCSD(T)/cc-pVTZ 

H2O_H2O_4918

0 1
O             -0.000000         -0.009833          0.000000
H             -0.799571         -0.580965          0.000000
H              0.799571         -0.580965          0.000000
O             -4.850733         -3.462142          0.000000
H             -5.684373         -2.941997          0.000000
H             -5.072408         -4.419412          0.000000

