%NProcShared=4 
%Mem=4GB  
%Chk=H2O_H2O_1499.chk 

#p CCSD(T)/cc-pVTZ 

H2O_H2O_1499

0 1
O             -0.000000         -0.009833          0.000000
H             -0.799571         -0.580965          0.000000
H              0.799571         -0.580965          0.000000
O             -2.628123         -1.870238          0.000000
H             -3.199255         -1.070667          0.000000
H             -3.199255         -2.669810          0.000000

