%NProcShared=4 
%Mem=4GB  
%Chk=H2O_H2O_3774.chk 

#p CCSD(T)/cc-pVTZ 

H2O_H2O_3774

0 1
O             -0.000000         -0.009833          0.000000
H             -0.799571         -0.580965          0.000000
H              0.799571         -0.580965          0.000000
O             -4.104953         -2.925135          0.000000
H             -4.676085         -2.125563          0.000000
H             -4.676085         -3.724706          0.000000

