%NProcShared=4 
%Mem=4GB  
%Chk=H2O_H2O_1953.chk 

#p CCSD(T)/cc-pVTZ 

H2O_H2O_1953

0 1
O             -0.000000         -0.009833          0.000000
H             -0.799571         -0.580965          0.000000
H              0.799571         -0.580965          0.000000
O             -2.928557         -2.100136          0.000000
H             -3.824188         -2.504305          0.000000
H             -2.255772         -2.816282          0.000000

