%NProcShared=4 
%Mem=4GB  
%Chk=H2O_H2O_1676.chk 

#p CCSD(T)/cc-pVTZ 

H2O_H2O_1676

0 1
O             -0.000000         -0.009833          0.000000
H             -0.799571         -0.580965          0.000000
H              0.799571         -0.580965          0.000000
O             -2.748764         -1.972789          0.000000
H             -3.583978         -2.490403          0.000000
H             -1.988259         -2.594992          0.000000

