%NProcShared=4 
%Mem=4GB  
%Chk=H2O_H2O_4093.chk 

#p CCSD(T)/cc-pVTZ 

H2O_H2O_4093

0 1
O             -0.000000         -0.009833          0.000000
H             -0.799571         -0.580965          0.000000
H              0.799571         -0.580965          0.000000
O             -4.315180         -3.079597          0.000000
H             -5.148820         -2.559452          0.000000
H             -4.536854         -4.036867          0.000000

