%NProcShared=4 
%Mem=4GB  
%Chk=H2O_H2O_2565.chk 

#p CCSD(T)/cc-pVTZ 

H2O_H2O_2565

0 1
O             -0.000000         -0.009833          0.000000
H             -0.799571         -0.580965          0.000000
H              0.799571         -0.580965          0.000000
O             -3.324309         -2.374169          0.000000
H             -4.243406         -2.026653          0.000000
H             -3.354969         -3.356292          0.000000

