%NProcShared=4 
%Mem=4GB  
%Chk=H2O_H2O_2697.chk 

#p CCSD(T)/cc-pVTZ 

H2O_H2O_2697

0 1
O             -0.000000         -0.009833          0.000000
H             -0.799571         -0.580965          0.000000
H              0.799571         -0.580965          0.000000
O             -3.407026         -2.427951          0.000000
H             -4.077637         -1.709767          0.000000
H             -3.868907         -3.295229          0.000000

