%NProcShared=4 
%Mem=4GB  
%Chk=H2O_H2O_1530.chk 

#p CCSD(T)/cc-pVTZ 

H2O_H2O_1530

0 1
O             -0.000000         -0.009833          0.000000
H             -0.799571         -0.580965          0.000000
H              0.799571         -0.580965          0.000000
O             -2.653908         -1.902734          0.000000
H             -3.594631         -2.186543          0.000000
H             -2.080355         -2.700570          0.000000

