%NProcShared=4 
%Mem=4GB  
%Chk=H2O_H2O_1370.chk 

#p CCSD(T)/cc-pVTZ 

H2O_H2O_1370

0 1
O             -0.000000         -0.009833          0.000000
H             -0.799571         -0.580965          0.000000
H              0.799571         -0.580965          0.000000
O             -2.546643         -1.814822          0.000000
H             -3.305259         -1.190315          0.000000
H             -2.891370         -2.734969          0.000000

