%NProcShared=4 
%Mem=4GB  
%Chk=H2O_H2O_2332.chk 

#p CCSD(T)/cc-pVTZ 

H2O_H2O_2332

0 1
O             -0.000000         -0.009833          0.000000
H             -0.799571         -0.580965          0.000000
H              0.799571         -0.580965          0.000000
O             -3.174422         -2.273195          0.000000
H             -4.144140         -2.431786          0.000000
H             -2.709913         -3.139069          0.000000

