%NProcShared=4 
%Mem=4GB  
%Chk=H2O_H2O_742.chk 

#p CCSD(T)/cc-pVTZ 

H2O_H2O_742

0 1
O             -0.000000         -0.009833          0.000000
H             -0.799571         -0.580965          0.000000
H              0.799571         -0.580965          0.000000
O             -2.140242         -1.526820          0.000000
H             -3.006116         -1.062311          0.000000
H             -2.298833         -2.496539          0.000000

