%NProcShared=4 
%Mem=4GB  
%Chk=H2O_H2O_4035.chk 

#p CCSD(T)/cc-pVTZ 

H2O_H2O_4035

0 1
O             -0.000000         -0.009833          0.000000
H             -0.799571         -0.580965          0.000000
H              0.799571         -0.580965          0.000000
O             -4.279624         -3.060451          0.000000
H             -5.261650         -3.026812          0.000000
H             -3.992964         -4.000308          0.000000

