%NProcShared=4 
%Mem=4GB  
%Chk=H2O_H2O_2404.chk 

#p CCSD(T)/cc-pVTZ 

H2O_H2O_2404

0 1
O             -0.000000         -0.009833          0.000000
H             -0.799571         -0.580965          0.000000
H              0.799571         -0.580965          0.000000
O             -3.221304         -2.308650          0.000000
H             -4.141451         -2.653377          0.000000
H             -2.596797         -3.067266          0.000000

