%NProcShared=4 
%Mem=4GB  
%Chk=H2O_H2O_3817.chk 

#p CCSD(T)/cc-pVTZ 

H2O_H2O_3817

0 1
O             -0.000000         -0.009833          0.000000
H             -0.799571         -0.580965          0.000000
H              0.799571         -0.580965          0.000000
O             -4.136397         -2.952668          0.000000
H             -5.002271         -2.488160          0.000000
H             -4.294988         -3.922387          0.000000

