%NProcShared=4 
%Mem=4GB  
%Chk=H2O_H2O_2575.chk 

#p CCSD(T)/cc-pVTZ 

H2O_H2O_2575

0 1
O             -0.000000         -0.009833          0.000000
H             -0.799571         -0.580965          0.000000
H              0.799571         -0.580965          0.000000
O             -3.332362         -2.390131          0.000000
H             -4.131933         -2.961263          0.000000
H             -2.532790         -2.961263          0.000000

