%NProcShared=4 
%Mem=4GB  
%Chk=H2O_H2O_737.chk 

#p CCSD(T)/cc-pVTZ 

H2O_H2O_737

0 1
O             -0.000000         -0.009833          0.000000
H             -0.799571         -0.580965          0.000000
H              0.799571         -0.580965          0.000000
O             -2.138376         -1.529424          0.000000
H             -3.107610         -1.367893          0.000000
H             -1.976845         -2.498657          0.000000

