%NProcShared=4 
%Mem=4GB  
%Chk=H2O_H2O_90.chk 

#p CCSD(T)/cc-pVTZ 

H2O_H2O_90

0 1
O             -0.000000         -0.009833          0.000000
H             -0.799571         -0.580965          0.000000
H              0.799571         -0.580965          0.000000
O             -1.717648         -1.226535          0.000000
H             -2.636745         -0.879019          0.000000
H             -1.748308         -2.208658          0.000000

