%NProcShared=4 
%Mem=4GB  
%Chk=H2O_H2O_4535.chk 

#p CCSD(T)/cc-pVTZ 

H2O_H2O_4535

0 1
O             -0.000000         -0.009833          0.000000
H             -0.799571         -0.580965          0.000000
H              0.799571         -0.580965          0.000000
O             -4.604202         -3.292296          0.000000
H             -5.586227         -3.258657          0.000000
H             -4.317542         -4.232154          0.000000

