%NProcShared=4 
%Mem=4GB  
%Chk=H2O_H2O_4908.chk 

#p CCSD(T)/cc-pVTZ 

H2O_H2O_4908

0 1
O             -0.000000         -0.009833          0.000000
H             -0.799571         -0.580965          0.000000
H              0.799571         -0.580965          0.000000
O             -4.846565         -3.466894          0.000000
H             -5.824581         -3.561723          0.000000
H             -4.439682         -4.361295          0.000000

