%NProcShared=4 
%Mem=4GB  
%Chk=H2O_H2O_3409.chk 

#p CCSD(T)/cc-pVTZ 

H2O_H2O_3409

0 1
O             -0.000000         -0.009833          0.000000
H             -0.799571         -0.580965          0.000000
H              0.799571         -0.580965          0.000000
O             -3.873378         -2.771019          0.000000
H             -4.855501         -2.801680          0.000000
H             -3.525863         -3.690116          0.000000

