%NProcShared=4 
%Mem=4GB  
%Chk=H2O_H2O_4892.chk 

#p CCSD(T)/cc-pVTZ 

H2O_H2O_4892

0 1
O             -0.000000         -0.009833          0.000000
H             -0.799571         -0.580965          0.000000
H              0.799571         -0.580965          0.000000
O             -4.834239         -3.451136          0.000000
H             -5.700114         -2.986627          0.000000
H             -4.992831         -4.420855          0.000000

