%NProcShared=4 
%Mem=4GB  
%Chk=H2O_H2O_4775.chk 

#p CCSD(T)/cc-pVTZ 

H2O_H2O_4775

0 1
O             -0.000000         -0.009833          0.000000
H             -0.799571         -0.580965          0.000000
H              0.799571         -0.580965          0.000000
O             -4.760505         -3.410251          0.000000
H             -5.560076         -3.981383          0.000000
H             -3.960933         -3.981383          0.000000

