%NProcShared=4 
%Mem=4GB  
%Chk=H2O_H2O_1207.chk 

#p CCSD(T)/cc-pVTZ 

H2O_H2O_1207

0 1
O             -0.000000         -0.009833          0.000000
H             -0.799571         -0.580965          0.000000
H              0.799571         -0.580965          0.000000
O             -2.444121         -1.751543          0.000000
H             -3.413840         -1.910134          0.000000
H             -1.979612         -2.617417          0.000000

