%NProcShared=4 
%Mem=4GB  
%Chk=H2O_H2O_942.chk 

#p CCSD(T)/cc-pVTZ 

H2O_H2O_942

0 1
O             -0.000000         -0.009833          0.000000
H             -0.799571         -0.580965          0.000000
H              0.799571         -0.580965          0.000000
O             -2.270073         -1.619558          0.000000
H             -3.135947         -1.155049          0.000000
H             -2.428665         -2.589277          0.000000

