%NProcShared=4 
%Mem=4GB  
%Chk=H2O_H2O_2479.chk 

#p CCSD(T)/cc-pVTZ 

H2O_H2O_2479

0 1
O             -0.000000         -0.009833          0.000000
H             -0.799571         -0.580965          0.000000
H              0.799571         -0.580965          0.000000
O             -3.269991         -2.343427          0.000000
H             -4.190137         -2.688154          0.000000
H             -2.645484         -3.102043          0.000000

