%NProcShared=4 
%Mem=4GB  
%Chk=H2O_H2O_621.chk 

#p CCSD(T)/cc-pVTZ 

H2O_H2O_621

0 1
O             -0.000000         -0.009833          0.000000
H             -0.799571         -0.580965          0.000000
H              0.799571         -0.580965          0.000000
O             -2.059923         -1.466428          0.000000
H             -2.776069         -0.793642          0.000000
H             -2.464092         -2.362058          0.000000

