%NProcShared=4 
%Mem=4GB  
%Chk=H2O_H2O_751.chk 

#p CCSD(T)/cc-pVTZ 

H2O_H2O_751

0 1
O             -0.000000         -0.009833          0.000000
H             -0.799571         -0.580965          0.000000
H              0.799571         -0.580965          0.000000
O             -2.148295         -1.543875          0.000000
H             -2.983508         -2.061490          0.000000
H             -1.387789         -2.166078          0.000000

