%NProcShared=4 
%Mem=4GB  
%Chk=H2O_H2O_2133.chk 

#p CCSD(T)/cc-pVTZ 

H2O_H2O_2133

0 1
O             -0.000000         -0.009833          0.000000
H             -0.799571         -0.580965          0.000000
H              0.799571         -0.580965          0.000000
O             -3.045158         -2.180153          0.000000
H             -4.023173         -2.274982          0.000000
H             -2.638275         -3.074554          0.000000

