%NProcShared=4 
%Mem=4GB  
%Chk=H2O_H2O_4085.chk 

#p CCSD(T)/cc-pVTZ 

H2O_H2O_4085

0 1
O             -0.000000         -0.009833          0.000000
H             -0.799571         -0.580965          0.000000
H              0.799571         -0.580965          0.000000
O             -4.312081         -3.083635          0.000000
H             -5.294107         -3.049996          0.000000
H             -4.025422         -4.023493          0.000000

