%NProcShared=4 
%Mem=4GB  
%Chk=H2O_H2O_3794.chk 

#p CCSD(T)/cc-pVTZ 

H2O_H2O_3794

0 1
O             -0.000000         -0.009833          0.000000
H             -0.799571         -0.580965          0.000000
H              0.799571         -0.580965          0.000000
O             -4.120660         -2.939887          0.000000
H             -4.918496         -2.366334          0.000000
H             -4.404468         -3.880610          0.000000

