%NProcShared=4 
%Mem=4GB  
%Chk=H2O_H2O_3615.chk 

#p CCSD(T)/cc-pVTZ 

H2O_H2O_3615

0 1
O             -0.000000         -0.009833          0.000000
H             -0.799571         -0.580965          0.000000
H              0.799571         -0.580965          0.000000
O             -4.005922         -2.861044          0.000000
H             -4.925019         -2.513529          0.000000
H             -4.036583         -3.843167          0.000000

