%NProcShared=4 
%Mem=4GB  
%Chk=H2O_H2O_2674.chk 

#p CCSD(T)/cc-pVTZ 

H2O_H2O_2674

0 1
O             -0.000000         -0.009833          0.000000
H             -0.799571         -0.580965          0.000000
H              0.799571         -0.580965          0.000000
O             -3.390881         -2.415075          0.000000
H             -3.962013         -1.615503          0.000000
H             -3.962013         -3.214646          0.000000

