%NProcShared=4 
%Mem=4GB  
%Chk=H2O_H2O_2879.chk 

#p CCSD(T)/cc-pVTZ 

H2O_H2O_2879

0 1
O             -0.000000         -0.009833          0.000000
H             -0.799571         -0.580965          0.000000
H              0.799571         -0.580965          0.000000
O             -3.529653         -2.528903          0.000000
H             -4.449800         -2.873630          0.000000
H             -2.905146         -3.287519          0.000000

