%NProcShared=4 
%Mem=4GB  
%Chk=H2O_H2O_3372.chk 

#p CCSD(T)/cc-pVTZ 

H2O_H2O_3372

0 1
O             -0.000000         -0.009833          0.000000
H             -0.799571         -0.580965          0.000000
H              0.799571         -0.580965          0.000000
O             -3.845206         -2.740942          0.000000
H             -4.515817         -2.022758          0.000000
H             -4.307087         -3.608220          0.000000

