%NProcShared=4 
%Mem=4GB  
%Chk=H2O_H2O_315.chk 

#p CCSD(T)/cc-pVTZ 

H2O_H2O_315

0 1
O             -0.000000         -0.009833          0.000000
H             -0.799571         -0.580965          0.000000
H              0.799571         -0.580965          0.000000
O             -1.863708         -1.330865          0.000000
H             -2.782805         -0.983350          0.000000
H             -1.894369         -2.312988          0.000000

