%NProcShared=4 
%Mem=4GB  
%Chk=H2O_H2O_4719.chk 

#p CCSD(T)/cc-pVTZ 

H2O_H2O_4719

0 1
O             -0.000000         -0.009833          0.000000
H             -0.799571         -0.580965          0.000000
H              0.799571         -0.580965          0.000000
O             -4.721129         -3.368801          0.000000
H             -5.518965         -2.795247          0.000000
H             -5.004937         -4.309524          0.000000

