%NProcShared=4 
%Mem=4GB  
%Chk=H2O_H2O_2487.chk 

#p CCSD(T)/cc-pVTZ 

H2O_H2O_2487

0 1
O             -0.000000         -0.009833          0.000000
H             -0.799571         -0.580965          0.000000
H              0.799571         -0.580965          0.000000
O             -3.274399         -2.340882          0.000000
H             -4.243633         -2.179351          0.000000
H             -3.112868         -3.310116          0.000000

