%NProcShared=4 
%Mem=4GB  
%Chk=H2O_H2O_4057.chk 

#p CCSD(T)/cc-pVTZ 

H2O_H2O_4057

0 1
O             -0.000000         -0.009833          0.000000
H             -0.799571         -0.580965          0.000000
H              0.799571         -0.580965          0.000000
O             -4.294216         -3.073061          0.000000
H             -5.263935         -3.231652          0.000000
H             -3.829707         -3.938935          0.000000

