%NProcShared=4 
%Mem=4GB  
%Chk=H2O_H2O_4046.chk 

#p CCSD(T)/cc-pVTZ 

H2O_H2O_4046

0 1
O             -0.000000         -0.009833          0.000000
H             -0.799571         -0.580965          0.000000
H              0.799571         -0.580965          0.000000
O             -4.283282         -3.054568          0.000000
H             -4.999429         -2.381782          0.000000
H             -4.687451         -3.950198          0.000000

