%NProcShared=4 
%Mem=4GB  
%Chk=H2O_H2O_3778.chk 

#p CCSD(T)/cc-pVTZ 

H2O_H2O_3778

0 1
O             -0.000000         -0.009833          0.000000
H             -0.799571         -0.580965          0.000000
H              0.799571         -0.580965          0.000000
O             -4.113267         -2.946371          0.000000
H             -5.008897         -3.350540          0.000000
H             -3.440481         -3.662517          0.000000

