%NProcShared=4 
%Mem=4GB  
%Chk=H2O_H2O_4200.chk 

#p CCSD(T)/cc-pVTZ 

H2O_H2O_4200

0 1
O             -0.000000         -0.009833          0.000000
H             -0.799571         -0.580965          0.000000
H              0.799571         -0.580965          0.000000
O             -4.387240         -3.143628          0.000000
H             -5.186811         -3.714760          0.000000
H             -3.587668         -3.714760          0.000000

