%NProcShared=4 
%Mem=4GB  
%Chk=H2O_H2O_4561.chk 

#p CCSD(T)/cc-pVTZ 

H2O_H2O_4561

0 1
O             -0.000000         -0.009833          0.000000
H             -0.799571         -0.580965          0.000000
H              0.799571         -0.580965          0.000000
O             -4.620928         -3.303480          0.000000
H             -5.598651         -3.205686          0.000000
H             -4.396352         -4.260074          0.000000

