%NProcShared=4 
%Mem=4GB  
%Chk=H2O_H2O_2375.chk 

#p CCSD(T)/cc-pVTZ 

H2O_H2O_2375

0 1
O             -0.000000         -0.009833          0.000000
H             -0.799571         -0.580965          0.000000
H              0.799571         -0.580965          0.000000
O             -3.202530         -2.297393          0.000000
H             -4.002102         -2.868525          0.000000
H             -2.402959         -2.868525          0.000000

