%NProcShared=4 
%Mem=4GB  
%Chk=H2O_H2O_2499.chk 

#p CCSD(T)/cc-pVTZ 

H2O_H2O_2499

0 1
O             -0.000000         -0.009833          0.000000
H             -0.799571         -0.580965          0.000000
H              0.799571         -0.580965          0.000000
O             -3.277279         -2.333929          0.000000
H             -3.848411         -1.534358          0.000000
H             -3.848411         -3.133500          0.000000

