%NProcShared=4 
%Mem=4GB  
%Chk=H2O_H2O_1417.chk 

#p CCSD(T)/cc-pVTZ 

H2O_H2O_1417

0 1
O             -0.000000         -0.009833          0.000000
H             -0.799571         -0.580965          0.000000
H              0.799571         -0.580965          0.000000
O             -2.578422         -1.839811          0.000000
H             -3.444296         -1.375302          0.000000
H             -2.737014         -2.809530          0.000000

