%NProcShared=4 
%Mem=4GB  
%Chk=H2O_H2O_2173.chk 

#p CCSD(T)/cc-pVTZ 

H2O_H2O_2173

0 1
O             -0.000000         -0.009833          0.000000
H             -0.799571         -0.580965          0.000000
H              0.799571         -0.580965          0.000000
O             -3.066282         -2.183873          0.000000
H             -3.688486         -1.423367          0.000000
H             -3.583897         -3.019086          0.000000

