%NProcShared=4 
%Mem=4GB  
%Chk=H2O_H2O_2127.chk 

#p CCSD(T)/cc-pVTZ 

H2O_H2O_2127

0 1
O             -0.000000         -0.009833          0.000000
H             -0.799571         -0.580965          0.000000
H              0.799571         -0.580965          0.000000
O             -3.041525         -2.181386          0.000000
H             -3.908803         -2.643267          0.000000
H             -2.323342         -2.851997          0.000000

