%NProcShared=4 
%Mem=4GB  
%Chk=H2O_H2O_2547.chk 

#p CCSD(T)/cc-pVTZ 

H2O_H2O_2547

0 1
O             -0.000000         -0.009833          0.000000
H             -0.799571         -0.580965          0.000000
H              0.799571         -0.580965          0.000000
O             -3.309653         -2.358397          0.000000
H             -3.980264         -1.640214          0.000000
H             -3.771534         -3.225676          0.000000

