%NProcShared=4 
%Mem=4GB  
%Chk=H2O_H2O_838.chk 

#p CCSD(T)/cc-pVTZ 

H2O_H2O_838

0 1
O             -0.000000         -0.009833          0.000000
H             -0.799571         -0.580965          0.000000
H              0.799571         -0.580965          0.000000
O             -2.203732         -1.575323          0.000000
H             -3.160325         -1.350747          0.000000
H             -2.105937         -2.553046          0.000000

