%NProcShared=4 
%Mem=4GB  
%Chk=H2O_H2O_3808.chk 

#p CCSD(T)/cc-pVTZ 

H2O_H2O_3808

0 1
O             -0.000000         -0.009833          0.000000
H             -0.799571         -0.580965          0.000000
H              0.799571         -0.580965          0.000000
O             -4.132494         -2.956835          0.000000
H             -5.110509         -3.051664          0.000000
H             -3.725611         -3.851235          0.000000

