%NProcShared=4 
%Mem=4GB  
%Chk=H2O_H2O_264.chk 

#p CCSD(T)/cc-pVTZ 

H2O_H2O_264

0 1
O             -0.000000         -0.009833          0.000000
H             -0.799571         -0.580965          0.000000
H              0.799571         -0.580965          0.000000
O             -1.830875         -1.308204          0.000000
H             -2.770733         -1.021544          0.000000
H             -1.797236         -2.290229          0.000000

