%NProcShared=4 
%Mem=4GB  
%Chk=H2O_H2O_4762.chk 

#p CCSD(T)/cc-pVTZ 

H2O_H2O_4762

0 1
O             -0.000000         -0.009833          0.000000
H             -0.799571         -0.580965          0.000000
H              0.799571         -0.580965          0.000000
O             -4.751229         -3.395778          0.000000
H             -5.720462         -3.234247          0.000000
H             -4.589698         -4.365012          0.000000

