%NProcShared=4 
%Mem=4GB  
%Chk=H2O_H2O_1613.chk 

#p CCSD(T)/cc-pVTZ 

H2O_H2O_1613

0 1
O             -0.000000         -0.009833          0.000000
H             -0.799571         -0.580965          0.000000
H              0.799571         -0.580965          0.000000
O             -2.706828         -1.934683          0.000000
H             -3.663421         -1.710107          0.000000
H             -2.609033         -2.912406          0.000000

