%NProcShared=4 
%Mem=4GB  
%Chk=H2O_H2O_3051.chk 

#p CCSD(T)/cc-pVTZ 

H2O_H2O_3051

0 1
O             -0.000000         -0.009833          0.000000
H             -0.799571         -0.580965          0.000000
H              0.799571         -0.580965          0.000000
O             -3.641354         -2.610363          0.000000
H             -4.476567         -3.127978          0.000000
H             -2.880848         -3.232567          0.000000

