%NProcShared=4 
%Mem=4GB  
%Chk=H2O_H2O_3148.chk 

#p CCSD(T)/cc-pVTZ 

H2O_H2O_3148

0 1
O             -0.000000         -0.009833          0.000000
H             -0.799571         -0.580965          0.000000
H              0.799571         -0.580965          0.000000
O             -3.699209         -2.635971          0.000000
H             -4.321413         -1.875465          0.000000
H             -4.216824         -3.471184          0.000000

