%NProcShared=4 
%Mem=4GB  
%Chk=H2O_H2O_1624.chk 

#p CCSD(T)/cc-pVTZ 

H2O_H2O_1624

0 1
O             -0.000000         -0.009833          0.000000
H             -0.799571         -0.580965          0.000000
H              0.799571         -0.580965          0.000000
O             -2.709268         -1.928200          0.000000
H             -3.280400         -1.128628          0.000000
H             -3.280400         -2.727771          0.000000

