%NProcShared=4 
%Mem=4GB  
%Chk=H2O_H2O_3090.chk 

#p CCSD(T)/cc-pVTZ 

H2O_H2O_3090

0 1
O             -0.000000         -0.009833          0.000000
H             -0.799571         -0.580965          0.000000
H              0.799571         -0.580965          0.000000
O             -3.665115         -2.617606          0.000000
H             -4.584212         -2.270091          0.000000
H             -3.695776         -3.599730          0.000000

