%NProcShared=4 
%Mem=4GB  
%Chk=H2O_H2O_490.chk 

#p CCSD(T)/cc-pVTZ 

H2O_H2O_490

0 1
O             -0.000000         -0.009833          0.000000
H             -0.799571         -0.580965          0.000000
H              0.799571         -0.580965          0.000000
O             -1.977310         -1.412011          0.000000
H             -2.896407         -1.064495          0.000000
H             -2.007971         -2.394134          0.000000

