%NProcShared=4 
%Mem=4GB  
%Chk=H2O_H2O_1631.chk 

#p CCSD(T)/cc-pVTZ 

H2O_H2O_1631

0 1
O             -0.000000         -0.009833          0.000000
H             -0.799571         -0.580965          0.000000
H              0.799571         -0.580965          0.000000
O             -2.719426         -1.948877          0.000000
H             -3.676697         -2.170551          0.000000
H             -2.199281         -2.782517          0.000000

