%NProcShared=4 
%Mem=4GB  
%Chk=H2O_H2O_2580.chk 

#p CCSD(T)/cc-pVTZ 

H2O_H2O_2580

0 1
O             -0.000000         -0.009833          0.000000
H             -0.799571         -0.580965          0.000000
H              0.799571         -0.580965          0.000000
O             -3.335522         -2.389609          0.000000
H             -4.276245         -2.673418          0.000000
H             -2.761968         -3.187445          0.000000

