%NProcShared=4 
%Mem=4GB  
%Chk=H2O_H2O_3563.chk 

#p CCSD(T)/cc-pVTZ 

H2O_H2O_3563

0 1
O             -0.000000         -0.009833          0.000000
H             -0.799571         -0.580965          0.000000
H              0.799571         -0.580965          0.000000
O             -3.972682         -2.838880          0.000000
H             -4.929275         -2.614304          0.000000
H             -3.874887         -3.816603          0.000000

