%NProcShared=4 
%Mem=4GB  
%Chk=H2O_H2O_1998.chk 

#p CCSD(T)/cc-pVTZ 

H2O_H2O_1998

0 1
O             -0.000000         -0.009833          0.000000
H             -0.799571         -0.580965          0.000000
H              0.799571         -0.580965          0.000000
O             -2.952680         -2.102727          0.000000
H             -3.574884         -1.342221          0.000000
H             -3.470295         -2.937940          0.000000

