%NProcShared=4 
%Mem=4GB  
%Chk=H2O_H2O_1835.chk 

#p CCSD(T)/cc-pVTZ 

H2O_H2O_1835

0 1
O             -0.000000         -0.009833          0.000000
H             -0.799571         -0.580965          0.000000
H              0.799571         -0.580965          0.000000
O             -2.851481         -2.040331          0.000000
H             -3.833506         -2.006693          0.000000
H             -2.564821         -2.980189          0.000000

