%NProcShared=4 
%Mem=4GB  
%Chk=H2O_H2O_1305.chk 

#p CCSD(T)/cc-pVTZ 

H2O_H2O_1305

0 1
O             -0.000000         -0.009833          0.000000
H             -0.799571         -0.580965          0.000000
H              0.799571         -0.580965          0.000000
O             -2.507849         -1.798404          0.000000
H             -3.448571         -2.082212          0.000000
H             -1.934295         -2.596240          0.000000

