%NProcShared=4 
%Mem=4GB  
%Chk=H2O_H2O_4632.chk 

#p CCSD(T)/cc-pVTZ 

H2O_H2O_4632

0 1
O             -0.000000         -0.009833          0.000000
H             -0.799571         -0.580965          0.000000
H              0.799571         -0.580965          0.000000
O             -4.667480         -3.339683          0.000000
H             -5.637199         -3.498274          0.000000
H             -4.202971         -4.205557          0.000000

