%NProcShared=4 
%Mem=4GB  
%Chk=H2O_H2O_2203.chk 

#p CCSD(T)/cc-pVTZ 

H2O_H2O_2203

0 1
O             -0.000000         -0.009833          0.000000
H             -0.799571         -0.580965          0.000000
H              0.799571         -0.580965          0.000000
O             -3.090846         -2.216058          0.000000
H             -3.986476         -2.620228          0.000000
H             -2.418061         -2.932205          0.000000

