%NProcShared=4 
%Mem=4GB  
%Chk=H2O_H2O_646.chk 

#p CCSD(T)/cc-pVTZ 

H2O_H2O_646

0 1
O             -0.000000         -0.009833          0.000000
H             -0.799571         -0.580965          0.000000
H              0.799571         -0.580965          0.000000
O             -2.076152         -1.478020          0.000000
H             -2.792298         -0.805234          0.000000
H             -2.480321         -2.373650          0.000000

