%NProcShared=4 
%Mem=4GB  
%Chk=H2O_H2O_1868.chk 

#p CCSD(T)/cc-pVTZ 

H2O_H2O_1868

0 1
O             -0.000000         -0.009833          0.000000
H             -0.799571         -0.580965          0.000000
H              0.799571         -0.580965          0.000000
O             -2.870808         -2.047885          0.000000
H             -3.704448         -1.527741          0.000000
H             -3.092483         -3.005156          0.000000

