%NProcShared=4 
%Mem=4GB  
%Chk=H2O_H2O_1999.chk 

#p CCSD(T)/cc-pVTZ 

H2O_H2O_1999

0 1
O             -0.000000         -0.009833          0.000000
H             -0.799571         -0.580965          0.000000
H              0.799571         -0.580965          0.000000
O             -2.952701         -2.102084          0.000000
H             -3.523833         -1.302512          0.000000
H             -3.523833         -2.901655          0.000000

