%NProcShared=4 
%Mem=4GB  
%Chk=H2O_H2O_4564.chk 

#p CCSD(T)/cc-pVTZ 

H2O_H2O_4564

0 1
O             -0.000000         -0.009833          0.000000
H             -0.799571         -0.580965          0.000000
H              0.799571         -0.580965          0.000000
O             -4.622246         -3.302073          0.000000
H             -5.562103         -3.015413          0.000000
H             -4.588607         -4.284099          0.000000

