%NProcShared=4 
%Mem=4GB  
%Chk=H2O_H2O_4757.chk 

#p CCSD(T)/cc-pVTZ 

H2O_H2O_4757

0 1
O             -0.000000         -0.009833          0.000000
H             -0.799571         -0.580965          0.000000
H              0.799571         -0.580965          0.000000
O             -4.748625         -3.397644          0.000000
H             -5.718344         -3.556235          0.000000
H             -4.284116         -4.263518          0.000000

