%NProcShared=4 
%Mem=4GB  
%Chk=H2O_H2O_2735.chk 

#p CCSD(T)/cc-pVTZ 

H2O_H2O_2735

0 1
O             -0.000000         -0.009833          0.000000
H             -0.799571         -0.580965          0.000000
H              0.799571         -0.580965          0.000000
O             -3.435721         -2.457653          0.000000
H             -4.417747         -2.424014          0.000000
H             -3.149061         -3.397510          0.000000

