%NProcShared=4 
%Mem=4GB  
%Chk=H2O_H2O_939.chk 

#p CCSD(T)/cc-pVTZ 

H2O_H2O_939

0 1
O             -0.000000         -0.009833          0.000000
H             -0.799571         -0.580965          0.000000
H              0.799571         -0.580965          0.000000
O             -2.269055         -1.621195          0.000000
H             -3.208913         -1.334535          0.000000
H             -2.235416         -2.603220          0.000000

