%NProcShared=4 
%Mem=4GB  
%Chk=H2O_H2O_2339.chk 

#p CCSD(T)/cc-pVTZ 

H2O_H2O_2339

0 1
O             -0.000000         -0.009833          0.000000
H             -0.799571         -0.580965          0.000000
H              0.799571         -0.580965          0.000000
O             -3.177874         -2.270361          0.000000
H             -4.117731         -1.983702          0.000000
H             -3.144235         -3.252387          0.000000

