%NProcShared=4 
%Mem=4GB  
%Chk=H2O_H2O_3379.chk 

#p CCSD(T)/cc-pVTZ 

H2O_H2O_3379

0 1
O             -0.000000         -0.009833          0.000000
H             -0.799571         -0.580965          0.000000
H              0.799571         -0.580965          0.000000
O             -3.854231         -2.760749          0.000000
H             -4.774378         -3.105475          0.000000
H             -3.229724         -3.519364          0.000000

