%NProcShared=4 
%Mem=4GB  
%Chk=H2O_H2O_54.chk 

#p CCSD(T)/cc-pVTZ 

H2O_H2O_54

0 1
O             -0.000000         -0.009833          0.000000
H             -0.799571         -0.580965          0.000000
H              0.799571         -0.580965          0.000000
O             -1.695788         -1.218977          0.000000
H             -2.615934         -1.563704          0.000000
H             -1.071281         -1.977593          0.000000

