%NProcShared=4 
%Mem=4GB  
%Chk=H2O_H2O_3234.chk 

#p CCSD(T)/cc-pVTZ 

H2O_H2O_3234

0 1
O             -0.000000         -0.009833          0.000000
H             -0.799571         -0.580965          0.000000
H              0.799571         -0.580965          0.000000
O             -3.759776         -2.689873          0.000000
H             -4.741899         -2.720534          0.000000
H             -3.412260         -3.608970          0.000000

