%NProcShared=4 
%Mem=4GB  
%Chk=H2O_H2O_4459.chk 

#p CCSD(T)/cc-pVTZ 

H2O_H2O_4459

0 1
O             -0.000000         -0.009833          0.000000
H             -0.799571         -0.580965          0.000000
H              0.799571         -0.580965          0.000000
O             -4.554992         -3.257894          0.000000
H             -5.537115         -3.288555          0.000000
H             -4.207476         -4.176991          0.000000

