%NProcShared=4 
%Mem=4GB  
%Chk=H2O_H2O_3071.chk 

#p CCSD(T)/cc-pVTZ 

H2O_H2O_3071

0 1
O             -0.000000         -0.009833          0.000000
H             -0.799571         -0.580965          0.000000
H              0.799571         -0.580965          0.000000
O             -3.650355         -2.602470          0.000000
H             -4.366501         -1.929684          0.000000
H             -4.054524         -3.498100          0.000000

