%NProcShared=4 
%Mem=4GB  
%Chk=H2O_H2O_2310.chk 

#p CCSD(T)/cc-pVTZ 

H2O_H2O_2310

0 1
O             -0.000000         -0.009833          0.000000
H             -0.799571         -0.580965          0.000000
H              0.799571         -0.580965          0.000000
O             -3.159830         -2.260584          0.000000
H             -4.141856         -2.226945          0.000000
H             -2.873170         -3.200442          0.000000

