%NProcShared=4 
%Mem=4GB  
%Chk=H2O_H2O_541.chk 

#p CCSD(T)/cc-pVTZ 

H2O_H2O_541

0 1
O             -0.000000         -0.009833          0.000000
H             -0.799571         -0.580965          0.000000
H              0.799571         -0.580965          0.000000
O             -2.010108         -1.434649          0.000000
H             -2.904508         -1.027766          0.000000
H             -2.104937         -2.412664          0.000000

