%NProcShared=4 
%Mem=4GB  
%Chk=H2O_H2O_17.chk 

#p CCSD(T)/cc-pVTZ 

H2O_H2O_17

0 1
O             -0.000000         -0.009833          0.000000
H             -0.799571         -0.580965          0.000000
H              0.799571         -0.580965          0.000000
O             -1.669604         -1.190644          0.000000
H             -2.535478         -0.726135          0.000000
H             -1.828195         -2.160363          0.000000

