%NProcShared=4 
%Mem=4GB  
%Chk=H2O_H2O_1298.chk 

#p CCSD(T)/cc-pVTZ 

H2O_H2O_1298

0 1
O             -0.000000         -0.009833          0.000000
H             -0.799571         -0.580965          0.000000
H              0.799571         -0.580965          0.000000
O             -2.498271         -1.778143          0.000000
H             -3.120474         -1.017638          0.000000
H             -3.015886         -2.613357          0.000000

