%NProcShared=4 
%Mem=4GB  
%Chk=H2O_H2O_382.chk 

#p CCSD(T)/cc-pVTZ 

H2O_H2O_382

0 1
O             -0.000000         -0.009833          0.000000
H             -0.799571         -0.580965          0.000000
H              0.799571         -0.580965          0.000000
O             -1.908568         -1.368998          0.000000
H             -2.878287         -1.527589          0.000000
H             -1.444059         -2.234872          0.000000

