%NProcShared=4 
%Mem=4GB  
%Chk=H2O_H2O_562.chk 

#p CCSD(T)/cc-pVTZ 

H2O_H2O_562

0 1
O             -0.000000         -0.009833          0.000000
H             -0.799571         -0.580965          0.000000
H              0.799571         -0.580965          0.000000
O             -2.024774         -1.448278          0.000000
H             -2.994007         -1.286747          0.000000
H             -1.863243         -2.417511          0.000000

