%NProcShared=4 
%Mem=4GB  
%Chk=H2O_H2O_3213.chk 

#p CCSD(T)/cc-pVTZ 

H2O_H2O_3213

0 1
O             -0.000000         -0.009833          0.000000
H             -0.799571         -0.580965          0.000000
H              0.799571         -0.580965          0.000000
O             -3.745477         -2.676588          0.000000
H             -4.702071         -2.452012          0.000000
H             -3.647683         -3.654311          0.000000

