%NProcShared=4 
%Mem=4GB  
%Chk=H2O_H2O_1800.chk 

#p CCSD(T)/cc-pVTZ 

H2O_H2O_1800

0 1
O             -0.000000         -0.009833          0.000000
H             -0.799571         -0.580965          0.000000
H              0.799571         -0.580965          0.000000
O             -2.829266         -2.030771          0.000000
H             -3.628837         -2.601903          0.000000
H             -2.029694         -2.601903          0.000000

