%NProcShared=4 
%Mem=4GB  
%Chk=H2O_H2O_1458.chk 

#p CCSD(T)/cc-pVTZ 

H2O_H2O_1458

0 1
O             -0.000000         -0.009833          0.000000
H             -0.799571         -0.580965          0.000000
H              0.799571         -0.580965          0.000000
O             -2.606978         -1.867162          0.000000
H             -3.584993         -1.961991          0.000000
H             -2.200095         -2.761562          0.000000

