%NProcShared=4 
%Mem=4GB  
%Chk=H2O_H2O_701.chk 

#p CCSD(T)/cc-pVTZ 

H2O_H2O_701

0 1
O             -0.000000         -0.009833          0.000000
H             -0.799571         -0.580965          0.000000
H              0.799571         -0.580965          0.000000
O             -2.115837         -1.520690          0.000000
H             -2.951050         -2.038305          0.000000
H             -1.355332         -2.142894          0.000000

