%NProcShared=4 
%Mem=4GB  
%Chk=H2O_H2O_2847.chk 

#p CCSD(T)/cc-pVTZ 

H2O_H2O_2847

0 1
O             -0.000000         -0.009833          0.000000
H             -0.799571         -0.580965          0.000000
H              0.799571         -0.580965          0.000000
O             -3.504400         -2.497504          0.000000
H             -4.175010         -1.779321          0.000000
H             -3.966280         -3.364783          0.000000

