%NProcShared=4 
%Mem=4GB  
%Chk=H2O_H2O_1621.chk 

#p CCSD(T)/cc-pVTZ 

H2O_H2O_1621

0 1
O             -0.000000         -0.009833          0.000000
H             -0.799571         -0.580965          0.000000
H              0.799571         -0.580965          0.000000
O             -2.709079         -1.930118          0.000000
H             -3.425225         -1.257333          0.000000
H             -3.113248         -2.825748          0.000000

