%NProcShared=4 
%Mem=4GB  
%Chk=H2O_H2O_785.chk 

#p CCSD(T)/cc-pVTZ 

H2O_H2O_785

0 1
O             -0.000000         -0.009833          0.000000
H             -0.799571         -0.580965          0.000000
H              0.799571         -0.580965          0.000000
O             -2.169867         -1.553456          0.000000
H             -3.151892         -1.519817          0.000000
H             -1.883207         -2.493314          0.000000

