%NProcShared=4 
%Mem=4GB  
%Chk=H2O_H2O_1669.chk 

#p CCSD(T)/cc-pVTZ 

H2O_H2O_1669

0 1
O             -0.000000         -0.009833          0.000000
H             -0.799571         -0.580965          0.000000
H              0.799571         -0.580965          0.000000
O             -2.741204         -1.954545          0.000000
H             -3.539039         -1.380991          0.000000
H             -3.025012         -2.895268          0.000000

