%NProcShared=4 
%Mem=4GB  
%Chk=H2O_H2O_3268.chk 

#p CCSD(T)/cc-pVTZ 

H2O_H2O_3268

0 1
O             -0.000000         -0.009833          0.000000
H             -0.799571         -0.580965          0.000000
H              0.799571         -0.580965          0.000000
O             -3.779626         -2.697052          0.000000
H             -4.613266         -2.176907          0.000000
H             -4.001301         -3.654323          0.000000

