%NProcShared=4 
%Mem=4GB  
%Chk=H2O_H2O_2231.chk 

#p CCSD(T)/cc-pVTZ 

H2O_H2O_2231

0 1
O             -0.000000         -0.009833          0.000000
H             -0.799571         -0.580965          0.000000
H              0.799571         -0.580965          0.000000
O             -3.108920         -2.227091          0.000000
H             -4.066190         -2.448766          0.000000
H             -2.588775         -3.060731          0.000000

