%NProcShared=4 
%Mem=4GB  
%Chk=H2O_H2O_3710.chk 

#p CCSD(T)/cc-pVTZ 

H2O_H2O_3710

0 1
O             -0.000000         -0.009833          0.000000
H             -0.799571         -0.580965          0.000000
H              0.799571         -0.580965          0.000000
O             -4.068648         -2.909751          0.000000
H             -5.050674         -2.876112          0.000000
H             -3.781989         -3.849609          0.000000

