%NProcShared=4 
%Mem=4GB  
%Chk=H2O_H2O_353.chk 

#p CCSD(T)/cc-pVTZ 

H2O_H2O_353

0 1
O             -0.000000         -0.009833          0.000000
H             -0.799571         -0.580965          0.000000
H              0.799571         -0.580965          0.000000
O             -1.889908         -1.358231          0.000000
H             -2.785538         -1.762400          0.000000
H             -1.217122         -2.074377          0.000000

