%NProcShared=4 
%Mem=4GB  
%Chk=H2O_H2O_4239.chk 

#p CCSD(T)/cc-pVTZ 

H2O_H2O_4239

0 1
O             -0.000000         -0.009833          0.000000
H             -0.799571         -0.580965          0.000000
H              0.799571         -0.580965          0.000000
O             -4.411270         -3.151374          0.000000
H             -5.351128         -2.864714          0.000000
H             -4.377631         -4.133399          0.000000

