%NProcShared=4 
%Mem=4GB  
%Chk=H2O_H2O_3433.chk 

#p CCSD(T)/cc-pVTZ 

H2O_H2O_3433

0 1
O             -0.000000         -0.009833          0.000000
H             -0.799571         -0.580965          0.000000
H              0.799571         -0.580965          0.000000
O             -3.889060         -2.782951          0.000000
H             -4.867076         -2.877780          0.000000
H             -3.482177         -3.677351          0.000000

