%NProcShared=4 
%Mem=4GB  
%Chk=H2O_H2O_4668.chk 

#p CCSD(T)/cc-pVTZ 

H2O_H2O_4668

0 1
O             -0.000000         -0.009833          0.000000
H             -0.799571         -0.580965          0.000000
H              0.799571         -0.580965          0.000000
O             -4.688445         -3.346219          0.000000
H             -5.522084         -2.826074          0.000000
H             -4.910119         -4.303489          0.000000

