%NProcShared=4 
%Mem=4GB  
%Chk=H2O_H2O_3162.chk 

#p CCSD(T)/cc-pVTZ 

H2O_H2O_3162

0 1
O             -0.000000         -0.009833          0.000000
H             -0.799571         -0.580965          0.000000
H              0.799571         -0.580965          0.000000
O             -3.712579         -2.653873          0.000000
H             -4.681813         -2.492342          0.000000
H             -3.551048         -3.623107          0.000000

