%NProcShared=4 
%Mem=4GB  
%Chk=H2O_H2O_3528.chk 

#p CCSD(T)/cc-pVTZ 

H2O_H2O_3528

0 1
O             -0.000000         -0.009833          0.000000
H             -0.799571         -0.580965          0.000000
H              0.799571         -0.580965          0.000000
O             -3.950978         -2.830448          0.000000
H             -4.846608         -3.234618          0.000000
H             -3.278193         -3.546595          0.000000

