%NProcShared=4 
%Mem=4GB  
%Chk=H2O_H2O_1471.chk 

#p CCSD(T)/cc-pVTZ 

H2O_H2O_1471

0 1
O             -0.000000         -0.009833          0.000000
H             -0.799571         -0.580965          0.000000
H              0.799571         -0.580965          0.000000
O             -2.611705         -1.860565          0.000000
H             -3.327852         -1.187779          0.000000
H             -3.015875         -2.756195          0.000000

