%NProcShared=4 
%Mem=4GB  
%Chk=H2O_H2O_4723.chk 

#p CCSD(T)/cc-pVTZ 

H2O_H2O_4723

0 1
O             -0.000000         -0.009833          0.000000
H             -0.799571         -0.580965          0.000000
H              0.799571         -0.580965          0.000000
O             -4.721630         -3.366284          0.000000
H             -5.343833         -2.605778          0.000000
H             -5.239245         -4.201497          0.000000

