%NProcShared=4 
%Mem=4GB  
%Chk=H2O_H2O_4683.chk 

#p CCSD(T)/cc-pVTZ 

H2O_H2O_4683

0 1
O             -0.000000         -0.009833          0.000000
H             -0.799571         -0.580965          0.000000
H              0.799571         -0.580965          0.000000
O             -4.700505         -3.362564          0.000000
H             -5.678521         -3.457393          0.000000
H             -4.293622         -4.256964          0.000000

