%NProcShared=4 
%Mem=4GB  
%Chk=H2O_H2O_3219.chk 

#p CCSD(T)/cc-pVTZ 

H2O_H2O_3219

0 1
O             -0.000000         -0.009833          0.000000
H             -0.799571         -0.580965          0.000000
H              0.799571         -0.580965          0.000000
O             -3.747395         -2.673266          0.000000
H             -4.545231         -2.099712          0.000000
H             -4.031203         -3.613988          0.000000

