%NProcShared=4 
%Mem=4GB  
%Chk=H2O_H2O_1344.chk 

#p CCSD(T)/cc-pVTZ 

H2O_H2O_1344

0 1
O             -0.000000         -0.009833          0.000000
H             -0.799571         -0.580965          0.000000
H              0.799571         -0.580965          0.000000
O             -2.530228         -1.803846          0.000000
H             -3.328064         -1.230292          0.000000
H             -2.814036         -2.744568          0.000000

