%NProcShared=4 
%Mem=4GB  
%Chk=H2O_H2O_3597.chk 

#p CCSD(T)/cc-pVTZ 

H2O_H2O_3597

0 1
O             -0.000000         -0.009833          0.000000
H             -0.799571         -0.580965          0.000000
H              0.799571         -0.580965          0.000000
O             -3.991266         -2.845272          0.000000
H             -4.661877         -2.127089          0.000000
H             -4.453147         -3.712551          0.000000

