%NProcShared=4 
%Mem=4GB  
%Chk=H2O_H2O_647.chk 

#p CCSD(T)/cc-pVTZ 

H2O_H2O_647

0 1
O             -0.000000         -0.009833          0.000000
H             -0.799571         -0.580965          0.000000
H              0.799571         -0.580965          0.000000
O             -2.076256         -1.477385          0.000000
H             -2.746867         -0.759202          0.000000
H             -2.538137         -2.344664          0.000000

