%NProcShared=4 
%Mem=4GB  
%Chk=H2O_H2O_2731.chk 

#p CCSD(T)/cc-pVTZ 

H2O_H2O_2731

0 1
O             -0.000000         -0.009833          0.000000
H             -0.799571         -0.580965          0.000000
H              0.799571         -0.580965          0.000000
O             -3.433498         -2.458936          0.000000
H             -4.390768         -2.680611          0.000000
H             -2.913353         -3.292576          0.000000

