%NProcShared=4 
%Mem=4GB  
%Chk=H2O_H2O_4062.chk 

#p CCSD(T)/cc-pVTZ 

H2O_H2O_4062

0 1
O             -0.000000         -0.009833          0.000000
H             -0.799571         -0.580965          0.000000
H              0.799571         -0.580965          0.000000
O             -4.296820         -3.071195          0.000000
H             -5.266053         -2.909664          0.000000
H             -4.135289         -4.040428          0.000000

