%NProcShared=4 
%Mem=4GB  
%Chk=H2O_H2O_3897.chk 

#p CCSD(T)/cc-pVTZ 

H2O_H2O_3897

0 1
O             -0.000000         -0.009833          0.000000
H             -0.799571         -0.580965          0.000000
H              0.799571         -0.580965          0.000000
O             -4.186013         -2.984379          0.000000
H             -4.856624         -2.266196          0.000000
H             -4.647894         -3.851658          0.000000

