%NProcShared=4 
%Mem=4GB  
%Chk=H2O_H2O_4940.chk 

#p CCSD(T)/cc-pVTZ 

H2O_H2O_4940

0 1
O             -0.000000         -0.009833          0.000000
H             -0.799571         -0.580965          0.000000
H              0.799571         -0.580965          0.000000
O             -4.866054         -3.475434          0.000000
H             -5.785151         -3.127919          0.000000
H             -4.896715         -4.457557          0.000000

