%NProcShared=4 
%Mem=4GB  
%Chk=H2O_H2O_1941.chk 

#p CCSD(T)/cc-pVTZ 

H2O_H2O_1941

0 1
O             -0.000000         -0.009833          0.000000
H             -0.799571         -0.580965          0.000000
H              0.799571         -0.580965          0.000000
O             -2.918926         -2.083816          0.000000
H             -3.813326         -1.676933          0.000000
H             -3.013755         -3.061831          0.000000

