%NProcShared=4 
%Mem=4GB  
%Chk=H2O_H2O_3644.chk 

#p CCSD(T)/cc-pVTZ 

H2O_H2O_3644

0 1
O             -0.000000         -0.009833          0.000000
H             -0.799571         -0.580965          0.000000
H              0.799571         -0.580965          0.000000
O             -4.023287         -2.870334          0.000000
H             -4.821122         -2.296780          0.000000
H             -4.307095         -3.811056          0.000000

