%NProcShared=4 
%Mem=4GB  
%Chk=H2O_H2O_2371.chk 

#p CCSD(T)/cc-pVTZ 

H2O_H2O_2371

0 1
O             -0.000000         -0.009833          0.000000
H             -0.799571         -0.580965          0.000000
H              0.799571         -0.580965          0.000000
O             -3.195946         -2.277886          0.000000
H             -3.912092         -1.605101          0.000000
H             -3.600115         -3.173516          0.000000

