%NProcShared=4 
%Mem=4GB  
%Chk=H2O_H2O_247.chk 

#p CCSD(T)/cc-pVTZ 

H2O_H2O_247

0 1
O             -0.000000         -0.009833          0.000000
H             -0.799571         -0.580965          0.000000
H              0.799571         -0.580965          0.000000
O             -1.816594         -1.291909          0.000000
H             -2.487205         -0.573725          0.000000
H             -2.278475         -2.159187          0.000000

