%NProcShared=4 
%Mem=4GB  
%Chk=H2O_H2O_2661.chk 

#p CCSD(T)/cc-pVTZ 

H2O_H2O_2661

0 1
O             -0.000000         -0.009833          0.000000
H             -0.799571         -0.580965          0.000000
H              0.799571         -0.580965          0.000000
O             -3.387532         -2.422468          0.000000
H             -4.365255         -2.324673          0.000000
H             -3.162955         -3.379062          0.000000

