%NProcShared=4 
%Mem=4GB  
%Chk=H2O_H2O_4074.chk 

#p CCSD(T)/cc-pVTZ 

H2O_H2O_4074

0 1
O             -0.000000         -0.009833          0.000000
H             -0.799571         -0.580965          0.000000
H              0.799571         -0.580965          0.000000
O             -4.299700         -3.064242          0.000000
H             -4.870832         -2.264670          0.000000
H             -4.870832         -3.863813          0.000000

