%NProcShared=4 
%Mem=4GB  
%Chk=H2O_H2O_2207.chk 

#p CCSD(T)/cc-pVTZ 

H2O_H2O_2207

0 1
O             -0.000000         -0.009833          0.000000
H             -0.799571         -0.580965          0.000000
H              0.799571         -0.580965          0.000000
O             -3.093277         -2.215233          0.000000
H             -4.062996         -2.373825          0.000000
H             -2.628768         -3.081107          0.000000

