%NProcShared=4 
%Mem=4GB  
%Chk=H2O_H2O_69.chk 

#p CCSD(T)/cc-pVTZ 

H2O_H2O_69

0 1
O             -0.000000         -0.009833          0.000000
H             -0.799571         -0.580965          0.000000
H              0.799571         -0.580965          0.000000
O             -1.702554         -1.212640          0.000000
H             -2.500390         -0.639086          0.000000
H             -1.986362         -2.153363          0.000000

