%NProcShared=4 
%Mem=4GB  
%Chk=H2O_H2O_2066.chk 

#p CCSD(T)/cc-pVTZ 

H2O_H2O_2066

0 1
O             -0.000000         -0.009833          0.000000
H             -0.799571         -0.580965          0.000000
H              0.799571         -0.580965          0.000000
O             -3.000070         -2.141777          0.000000
H             -3.894471         -1.734894          0.000000
H             -3.094899         -3.119792          0.000000

