%NProcShared=4 
%Mem=4GB  
%Chk=H2O_H2O_593.chk 

#p CCSD(T)/cc-pVTZ 

H2O_H2O_593

0 1
O             -0.000000         -0.009833          0.000000
H             -0.799571         -0.580965          0.000000
H              0.799571         -0.580965          0.000000
O             -2.043134         -1.456680          0.000000
H             -2.876774         -0.936535          0.000000
H             -2.264809         -2.413950          0.000000

