%NProcShared=4 
%Mem=4GB  
%Chk=H2O_H2O_2476.chk 

#p CCSD(T)/cc-pVTZ 

H2O_H2O_2476

0 1
O             -0.000000         -0.009833          0.000000
H             -0.799571         -0.580965          0.000000
H              0.799571         -0.580965          0.000000
O             -3.268089         -2.343741          0.000000
H             -4.103302         -2.861356          0.000000
H             -2.507583         -2.965945          0.000000

