%NProcShared=4 
%Mem=4GB  
%Chk=H2O_H2O_1462.chk 

#p CCSD(T)/cc-pVTZ 

H2O_H2O_1462

0 1
O             -0.000000         -0.009833          0.000000
H             -0.799571         -0.580965          0.000000
H              0.799571         -0.580965          0.000000
O             -2.609014         -1.865599          0.000000
H             -3.578248         -1.704068          0.000000
H             -2.447483         -2.834833          0.000000

