%NProcShared=4 
%Mem=4GB  
%Chk=H2O_H2O_1309.chk 

#p CCSD(T)/cc-pVTZ 

H2O_H2O_1309

0 1
O             -0.000000         -0.009833          0.000000
H             -0.799571         -0.580965          0.000000
H              0.799571         -0.580965          0.000000
O             -2.510151         -1.797269          0.000000
H             -3.492274         -1.827929          0.000000
H             -2.162635         -2.716365          0.000000

