%NProcShared=4 
%Mem=4GB  
%Chk=H2O_H2O_1393.chk 

#p CCSD(T)/cc-pVTZ 

H2O_H2O_1393

0 1
O             -0.000000         -0.009833          0.000000
H             -0.799571         -0.580965          0.000000
H              0.799571         -0.580965          0.000000
O             -2.562459         -1.827632          0.000000
H             -3.396099         -1.307487          0.000000
H             -2.784133         -2.784903          0.000000

