%NProcShared=4 
%Mem=4GB  
%Chk=H2O_H2O_3758.chk 

#p CCSD(T)/cc-pVTZ 

H2O_H2O_3758

0 1
O             -0.000000         -0.009833          0.000000
H             -0.799571         -0.580965          0.000000
H              0.799571         -0.580965          0.000000
O             -4.100036         -2.933650          0.000000
H             -5.078051         -3.028479          0.000000
H             -3.693153         -3.828051          0.000000

