%NProcShared=4 
%Mem=4GB  
%Chk=H2O_H2O_774.chk 

#p CCSD(T)/cc-pVTZ 

H2O_H2O_774

0 1
O             -0.000000         -0.009833          0.000000
H             -0.799571         -0.580965          0.000000
H              0.799571         -0.580965          0.000000
O             -2.157485         -1.534063          0.000000
H             -2.728617         -0.734491          0.000000
H             -2.728617         -2.333634          0.000000

