%NProcShared=4 
%Mem=4GB  
%Chk=H2O_H2O_2978.chk 

#p CCSD(T)/cc-pVTZ 

H2O_H2O_2978

0 1
O             -0.000000         -0.009833          0.000000
H             -0.799571         -0.580965          0.000000
H              0.799571         -0.580965          0.000000
O             -3.593942         -2.575419          0.000000
H             -4.489572         -2.979588          0.000000
H             -2.921157         -3.291565          0.000000

