%NProcShared=4 
%Mem=4GB  
%Chk=H2O_H2O_2364.chk 

#p CCSD(T)/cc-pVTZ 

H2O_H2O_2364

0 1
O             -0.000000         -0.009833          0.000000
H             -0.799571         -0.580965          0.000000
H              0.799571         -0.580965          0.000000
O             -3.194103         -2.281954          0.000000
H             -4.133960         -1.995294          0.000000
H             -3.160464         -3.263980          0.000000

