%NProcShared=4 
%Mem=4GB  
%Chk=H2O_H2O_4872.chk 

#p CCSD(T)/cc-pVTZ 

H2O_H2O_4872

0 1
O             -0.000000         -0.009833          0.000000
H             -0.799571         -0.580965          0.000000
H              0.799571         -0.580965          0.000000
O             -4.818940         -3.436478          0.000000
H             -5.489551         -2.718294          0.000000
H             -5.280821         -4.303756          0.000000

