%NProcShared=4 
%Mem=4GB  
%Chk=H2O_H2O_1536.chk 

#p CCSD(T)/cc-pVTZ 

H2O_H2O_1536

0 1
O             -0.000000         -0.009833          0.000000
H             -0.799571         -0.580965          0.000000
H              0.799571         -0.580965          0.000000
O             -2.657231         -1.900816          0.000000
H             -3.634954         -1.803022          0.000000
H             -2.432655         -2.857410          0.000000

