%NProcShared=4 
%Mem=4GB  
%Chk=H2O_H2O_504.chk 

#p CCSD(T)/cc-pVTZ 

H2O_H2O_504

0 1
O             -0.000000         -0.009833          0.000000
H             -0.799571         -0.580965          0.000000
H              0.799571         -0.580965          0.000000
O             -1.987908         -1.427638          0.000000
H             -2.908054         -1.772365          0.000000
H             -1.363401         -2.186254          0.000000

