%NProcShared=4 
%Mem=4GB  
%Chk=H2O_H2O_2621.chk 

#p CCSD(T)/cc-pVTZ 

H2O_H2O_2621

0 1
O             -0.000000         -0.009833          0.000000
H             -0.799571         -0.580965          0.000000
H              0.799571         -0.580965          0.000000
O             -3.358235         -2.393809          0.000000
H             -4.074381         -1.721023          0.000000
H             -3.762404         -3.289439          0.000000

