%NProcShared=4 
%Mem=4GB  
%Chk=H2O_H2O_3329.chk 

#p CCSD(T)/cc-pVTZ 

H2O_H2O_3329

0 1
O             -0.000000         -0.009833          0.000000
H             -0.799571         -0.580965          0.000000
H              0.799571         -0.580965          0.000000
O             -3.821773         -2.737564          0.000000
H             -4.741920         -3.082291          0.000000
H             -3.197267         -3.496180          0.000000

