%NProcShared=4 
%Mem=4GB  
%Chk=H2O_H2O_3115.chk 

#p CCSD(T)/cc-pVTZ 

H2O_H2O_3115

0 1
O             -0.000000         -0.009833          0.000000
H             -0.799571         -0.580965          0.000000
H              0.799571         -0.580965          0.000000
O             -3.681344         -2.629199          0.000000
H             -4.600441         -2.281683          0.000000
H             -3.712005         -3.611322          0.000000

