%NProcShared=4 
%Mem=4GB  
%Chk=H2O_H2O_3669.chk 

#p CCSD(T)/cc-pVTZ 

H2O_H2O_3669

0 1
O             -0.000000         -0.009833          0.000000
H             -0.799571         -0.580965          0.000000
H              0.799571         -0.580965          0.000000
O             -4.039515         -2.881926          0.000000
H             -4.837351         -2.308372          0.000000
H             -4.323324         -3.822649          0.000000

