%NProcShared=4 
%Mem=4GB  
%Chk=H2O_H2O_3970.chk 

#p CCSD(T)/cc-pVTZ 

H2O_H2O_3970

0 1
O             -0.000000         -0.009833          0.000000
H             -0.799571         -0.580965          0.000000
H              0.799571         -0.580965          0.000000
O             -4.234449         -3.020418          0.000000
H             -4.993065         -2.395911          0.000000
H             -4.579176         -3.940564          0.000000

