%NProcShared=4 
%Mem=4GB  
%Chk=H2O_H2O_3801.chk 

#p CCSD(T)/cc-pVTZ 

H2O_H2O_3801

0 1
O             -0.000000         -0.009833          0.000000
H             -0.799571         -0.580965          0.000000
H              0.799571         -0.580965          0.000000
O             -4.128221         -2.958131          0.000000
H             -4.963434         -3.475746          0.000000
H             -3.367715         -3.580335          0.000000

