%NProcShared=4 
%Mem=4GB  
%Chk=H2O_H2O_10.chk 

#p CCSD(T)/cc-pVTZ 

H2O_H2O_10

0 1
O             -0.000000         -0.009833          0.000000
H             -0.799571         -0.580965          0.000000
H              0.799571         -0.580965          0.000000
O             -1.666771         -1.194096          0.000000
H             -2.648797         -1.160457          0.000000
H             -1.380111         -2.133954          0.000000

