%NProcShared=4 
%Mem=4GB  
%Chk=H2O_H2O_3282.chk 

#p CCSD(T)/cc-pVTZ 

H2O_H2O_3282

0 1
O             -0.000000         -0.009833          0.000000
H             -0.799571         -0.580965          0.000000
H              0.799571         -0.580965          0.000000
O             -0.004349          5.079879          0.000000
H              0.460159          5.945753          0.000000
H             -0.974068          5.238470          0.000000

