%NProcShared=4 
%Mem=4GB  
%Chk=H2O_H2O_3274.chk 

#p CCSD(T)/cc-pVTZ 

H2O_H2O_3274

0 1
O             -0.000000         -0.009833          0.000000
H             -0.799571         -0.580965          0.000000
H              0.799571         -0.580965          0.000000
O             -0.009833          5.044468          0.000000
H             -0.580965          5.844040          0.000000
H             -0.580965          4.244897          0.000000

