%NProcShared=4 
%Mem=4GB  
%Chk=H2O_H2O_2103.chk 

#p CCSD(T)/cc-pVTZ 

H2O_H2O_2103

0 1
O             -0.000000         -0.009833          0.000000
H             -0.799571         -0.580965          0.000000
H              0.799571         -0.580965          0.000000
O             -0.001918          3.830889          0.000000
H              0.670867          4.547035          0.000000
H             -0.897548          4.235058          0.000000

