%NProcShared=4 
%Mem=4GB  
%Chk=H2O_H2O_288.chk 

#p CCSD(T)/cc-pVTZ 

H2O_H2O_288

0 1
O             -0.000000         -0.009833          0.000000
H             -0.799571         -0.580965          0.000000
H              0.799571         -0.580965          0.000000
O             -0.007393          1.886525          0.000000
H              0.090401          2.864248          0.000000
H             -0.963987          1.661949          0.000000

