%NProcShared=4 
%Mem=4GB  
%Chk=H2O_H2O_46.chk 

#p CCSD(T)/cc-pVTZ 

H2O_H2O_46

0 1
O             -0.000000         -0.009833          0.000000
H             -0.799571         -0.580965          0.000000
H              0.799571         -0.580965          0.000000
O             -0.009644          1.616042          0.000000
H             -0.413813          2.511672          0.000000
H             -0.725791          0.943256          0.000000

