%NProcShared=4 
%Mem=4GB  
%Chk=H2O_H2O_1148.chk 

#p CCSD(T)/cc-pVTZ 

H2O_H2O_1148

0 1
O             -0.000000         -0.009833          0.000000
H             -0.799571         -0.580965          0.000000
H              0.799571         -0.580965          0.000000
O             -0.009812          2.784807          0.000000
H             -0.527427          3.620020          0.000000
H             -0.632016          2.024301          0.000000

