%NProcShared=4 
%Mem=4GB  
%Chk=H2O_H2O_1418.chk 

#p CCSD(T)/cc-pVTZ 

H2O_H2O_1418

0 1
O             -0.000000         -0.009833          0.000000
H             -0.799571         -0.580965          0.000000
H              0.799571         -0.580965          0.000000
O             -0.009085          3.080436          0.000000
H             -0.230759          4.037707          0.000000
H             -0.842725          2.560292          0.000000

