%NProcShared=4 
%Mem=4GB  
%Chk=H2O_H2O_1482.chk 

#p CCSD(T)/cc-pVTZ 

H2O_H2O_1482

0 1
O             -0.000000         -0.009833          0.000000
H             -0.799571         -0.580965          0.000000
H              0.799571         -0.580965          0.000000
O             -0.004349          3.165268          0.000000
H              0.460159          4.031142          0.000000
H             -0.974068          3.323859          0.000000

