%NProcShared=4 
%Mem=4GB  
%Chk=H2O_H2O_368.chk 

#p CCSD(T)/cc-pVTZ 

H2O_H2O_368

0 1
O             -0.000000         -0.009833          0.000000
H             -0.799571         -0.580965          0.000000
H              0.799571         -0.580965          0.000000
O             -0.009085          1.963580          0.000000
H             -0.230759          2.920851          0.000000
H             -0.842725          1.443435          0.000000

