%NProcShared=4 
%Mem=4GB  
%Chk=H2O_H2O_4520.chk 

#p CCSD(T)/cc-pVTZ 

H2O_H2O_4520

0 1
O             -0.000000         -0.009833          0.000000
H             -0.799571         -0.580965          0.000000
H              0.799571         -0.580965          0.000000
O             -0.009498          6.376604          0.000000
H             -0.354225          7.296751          0.000000
H             -0.768113          5.752097          0.000000

