%NProcShared=4 
%Mem=4GB  
%Chk=H2O_H2O_4523.chk 

#p CCSD(T)/cc-pVTZ 

H2O_H2O_4523

0 1
O             -0.000000         -0.009833          0.000000
H             -0.799571         -0.580965          0.000000
H              0.799571         -0.580965          0.000000
O             -0.009812          6.374702          0.000000
H             -0.527427          7.209915          0.000000
H             -0.632016          5.614197          0.000000

