%NProcShared=4 
%Mem=4GB  
%Chk=H2O_H2O_4242.chk 

#p CCSD(T)/cc-pVTZ 

H2O_H2O_4242

0 1
O             -0.000000         -0.009833          0.000000
H             -0.799571         -0.580965          0.000000
H              0.799571         -0.580965          0.000000
O             -0.008819          6.085898          0.000000
H             -0.167410          7.055617          0.000000
H             -0.874693          5.621390          0.000000

