%NProcShared=4 
%Mem=4GB  
%Chk=H2O_H2O_1189.chk 

#p CCSD(T)/cc-pVTZ 

H2O_H2O_1189

0 1
O             -0.000000         -0.009833          0.000000
H             -0.799571         -0.580965          0.000000
H              0.799571         -0.580965          0.000000
O             -0.007801          2.843333          0.000000
H              0.025838          3.825359          0.000000
H             -0.947659          2.556674          0.000000

