%NProcShared=4 
%Mem=4GB  
%Chk=H2O_H2O_4457.chk 

#p CCSD(T)/cc-pVTZ 

H2O_H2O_4457

0 1
O             -0.000000         -0.009833          0.000000
H             -0.799571         -0.580965          0.000000
H              0.799571         -0.580965          0.000000
O             -0.004349          6.329695          0.000000
H              0.460159          7.195569          0.000000
H             -0.974068          6.488286          0.000000

