%NProcShared=4 
%Mem=4GB  
%Chk=H2O_H2O_2134.chk 

#p CCSD(T)/cc-pVTZ 

H2O_H2O_2134

0 1
O             -0.000000         -0.009833          0.000000
H             -0.799571         -0.580965          0.000000
H              0.799571         -0.580965          0.000000
O             -0.005463          3.856012          0.000000
H              0.342052          4.775109          0.000000
H             -0.987586          3.886673          0.000000

