%NProcShared=4 
%Mem=4GB  
%Chk=H2O_H2O_1307.chk 

#p CCSD(T)/cc-pVTZ 

H2O_H2O_1307

0 1
O             -0.000000         -0.009833          0.000000
H             -0.799571         -0.580965          0.000000
H              0.799571         -0.580965          0.000000
O             -0.004349          2.979125          0.000000
H              0.460159          3.844999          0.000000
H             -0.974068          3.137717          0.000000

