%NProcShared=4 
%Mem=4GB  
%Chk=H2O_H2O_1199.chk 

#p CCSD(T)/cc-pVTZ 

H2O_H2O_1199

0 1
O             -0.000000         -0.009833          0.000000
H             -0.799571         -0.580965          0.000000
H              0.799571         -0.580965          0.000000
O             -0.009833          2.837347          0.000000
H             -0.580965          3.636919          0.000000
H             -0.580965          2.037776          0.000000

