%NProcShared=4 
%Mem=4GB  
%Chk=H2O_H2O_4728.chk 

#p CCSD(T)/cc-pVTZ 

H2O_H2O_4728

0 1
O             -0.000000         -0.009833          0.000000
H             -0.799571         -0.580965          0.000000
H              0.799571         -0.580965          0.000000
O             -0.001918          6.623030          0.000000
H              0.670867          7.339176          0.000000
H             -0.897548          7.027199          0.000000

