%NProcShared=4 
%Mem=4GB  
%Chk=H2O_H2O_4872.chk 

#p CCSD(T)/cc-pVTZ 

H2O_H2O_4872

0 1
O             -0.000000         -0.009833          0.000000
H             -0.799571         -0.580965          0.000000
H              0.799571         -0.580965          0.000000
O             -0.009749          6.747628          0.000000
H             -0.471630          7.614907          0.000000
H             -0.680360          6.029445          0.000000

