%NProcShared=4 
%Mem=4GB  
%Chk=H2O_H2O_2401.chk 

#p CCSD(T)/cc-pVTZ 

H2O_H2O_2401

0 1
O             -0.000000         -0.009833          0.000000
H             -0.799571         -0.580965          0.000000
H              0.799571         -0.580965          0.000000
O             -0.000643          4.150158          0.000000
H              0.759863          4.772362          0.000000
H             -0.835856          4.667773          0.000000

