%NProcShared=4 
%Mem=4GB  
%Chk=H2O_H2O_2646.chk 

#p CCSD(T)/cc-pVTZ 

H2O_H2O_2646

0 1
O             -0.000000         -0.009833          0.000000
H             -0.799571         -0.580965          0.000000
H              0.799571         -0.580965          0.000000
O             -0.009644          4.381591          0.000000
H             -0.413813          5.277221          0.000000
H             -0.725791          3.708805          0.000000

