%NProcShared=4 
%Mem=4GB  
%Chk=H2O_H2O_92.chk 

#p CCSD(T)/cc-pVTZ 

H2O_H2O_92

0 1
O             -0.000000         -0.009833          0.000000
H             -0.799571         -0.580965          0.000000
H              0.799571         -0.580965          0.000000
O             -0.008819          1.671656          0.000000
H             -0.167410          2.641375          0.000000
H             -0.874693          1.207148          0.000000

