%NProcShared=4 
%Mem=4GB  
%Chk=H2O_H2O_3552.chk 

#p CCSD(T)/cc-pVTZ 

H2O_H2O_3552

0 1
O             -0.000000         -0.009833          0.000000
H             -0.799571         -0.580965          0.000000
H              0.799571         -0.580965          0.000000
O             -0.001283          5.373319          0.000000
H              0.716900          6.043930          0.000000
H             -0.868562          5.835200          0.000000

