%NProcShared=4 
%Mem=4GB  
%Chk=H2O_H2O_622.chk 

#p CCSD(T)/cc-pVTZ 

H2O_H2O_622

0 1
O             -0.000000         -0.009833          0.000000
H             -0.799571         -0.580965          0.000000
H              0.799571         -0.580965          0.000000
O             -0.009749          2.227019          0.000000
H             -0.471630          3.094298          0.000000
H             -0.680360          1.508836          0.000000

