%NProcShared=4 
%Mem=4GB  
%Chk=H2O_H2O_4771.chk 

#p CCSD(T)/cc-pVTZ 

H2O_H2O_4771

0 1
O             -0.000000         -0.009833          0.000000
H             -0.799571         -0.580965          0.000000
H              0.799571         -0.580965          0.000000
O             -0.009644          6.641896          0.000000
H             -0.413813          7.537526          0.000000
H             -0.725791          5.969110          0.000000

