%NProcShared=4 
%Mem=4GB  
%Chk=H2O_H2O_307.chk 

#p CCSD(T)/cc-pVTZ 

H2O_H2O_307

0 1
O             -0.000000         -0.009833          0.000000
H             -0.799571         -0.580965          0.000000
H              0.799571         -0.580965          0.000000
O             -0.004349          1.915453          0.000000
H              0.460159          2.781327          0.000000
H             -0.974068          2.074044          0.000000

