%NProcShared=4 
%Mem=4GB  
%Chk=H2O_H2O_2192.chk 

#p CCSD(T)/cc-pVTZ 

H2O_H2O_2192

0 1
O             -0.000000         -0.009833          0.000000
H             -0.799571         -0.580965          0.000000
H              0.799571         -0.580965          0.000000
O             -0.008819          3.905369          0.000000
H             -0.167410          4.875088          0.000000
H             -0.874693          3.440860          0.000000

