%NProcShared=4 
%Mem=4GB  
%Chk=H2O_H2O_4238.chk 

#p CCSD(T)/cc-pVTZ 

H2O_H2O_4238

0 1
O             -0.000000         -0.009833          0.000000
H             -0.799571         -0.580965          0.000000
H              0.799571         -0.580965          0.000000
O             -0.007393          6.088033          0.000000
H              0.090401          7.065756          0.000000
H             -0.963987          5.863456          0.000000

