%NProcShared=4 
%Mem=4GB  
%Chk=H2O_H2O_4576.chk 

#p CCSD(T)/cc-pVTZ 

H2O_H2O_4576

0 1
O             -0.000000         -0.009833          0.000000
H             -0.799571         -0.580965          0.000000
H              0.799571         -0.580965          0.000000
O             -0.000643          6.463647          0.000000
H              0.759863          7.085850          0.000000
H             -0.835856          6.981262          0.000000

