%NProcShared=4 
%Mem=4GB  
%Chk=H2O_H2O_3324.chk 

#p CCSD(T)/cc-pVTZ 

H2O_H2O_3324

0 1
O             -0.000000         -0.009833          0.000000
H             -0.799571         -0.580965          0.000000
H              0.799571         -0.580965          0.000000
O             -0.009833          5.097652          0.000000
H             -0.580965          5.897223          0.000000
H             -0.580965          4.298080          0.000000

