%NProcShared=4 
%Mem=4GB  
%Chk=H2O_H2O_951.chk 

#p CCSD(T)/cc-pVTZ 

H2O_H2O_951

0 1
O             -0.000000         -0.009833          0.000000
H             -0.799571         -0.580965          0.000000
H              0.799571         -0.580965          0.000000
O             -0.000643          2.607833          0.000000
H              0.759863          3.230036          0.000000
H             -0.835856          3.125448          0.000000

