%NProcShared=4 
%Mem=4GB  
%Chk=H2O_H2O_315.chk 

#p CCSD(T)/cc-pVTZ 

H2O_H2O_315

0 1
O             -0.000000         -0.009833          0.000000
H             -0.799571         -0.580965          0.000000
H              0.799571         -0.580965          0.000000
O             -0.008176          1.912097          0.000000
H             -0.038837          2.894220          0.000000
H             -0.927273          1.564581          0.000000

