%NProcShared=4 
%Mem=4GB  
%Chk=H2O_H2O_4379.chk 

#p CCSD(T)/cc-pVTZ 

H2O_H2O_4379

0 1
O             -0.000000         -0.009833          0.000000
H             -0.799571         -0.580965          0.000000
H              0.799571         -0.580965          0.000000
O             -0.002545          6.250598          0.000000
H              0.621962          7.009214          0.000000
H             -0.922692          6.595325          0.000000

