%NProcShared=4 
%Mem=4GB  
%Chk=H2O_H2O_3024.chk 

#p CCSD(T)/cc-pVTZ 

H2O_H2O_3024

0 1
O             -0.000000         -0.009833          0.000000
H             -0.799571         -0.580965          0.000000
H              0.799571         -0.580965          0.000000
O             -0.009833          4.778550          0.000000
H             -0.580965          5.578121          0.000000
H             -0.580965          3.978978          0.000000

