%NProcShared=4 
%Mem=4GB  
%Chk=H2O_H2O_2660.chk 

#p CCSD(T)/cc-pVTZ 

H2O_H2O_2660

0 1
O             -0.000000         -0.009833          0.000000
H             -0.799571         -0.580965          0.000000
H              0.799571         -0.580965          0.000000
O             -0.005986          4.414066          0.000000
H              0.280674          5.353924          0.000000
H             -0.988012          4.380427          0.000000

