%NProcShared=4 
%Mem=4GB  
%Chk=H2O_H2O_3220.chk 

#p CCSD(T)/cc-pVTZ 

H2O_H2O_3220

0 1
O             -0.000000         -0.009833          0.000000
H             -0.799571         -0.580965          0.000000
H              0.799571         -0.580965          0.000000
O             -0.009498          4.993829          0.000000
H             -0.354225          5.913976          0.000000
H             -0.768113          4.369322          0.000000

