%NProcShared=4 
%Mem=4GB  
%Chk=H2O_H2O_2756.chk 

#p CCSD(T)/cc-pVTZ 

H2O_H2O_2756

0 1
O             -0.000000         -0.009833          0.000000
H             -0.799571         -0.580965          0.000000
H              0.799571         -0.580965          0.000000
O             -0.003763          4.521717          0.000000
H              0.516382          5.355356          0.000000
H             -0.961033          4.743391          0.000000

