%NProcShared=4 
%Mem=4GB  
%Chk=H2O_H2O_3365.chk 

#p CCSD(T)/cc-pVTZ 

H2O_H2O_3365

0 1
O             -0.000000         -0.009833          0.000000
H             -0.799571         -0.580965          0.000000
H              0.799571         -0.580965          0.000000
O             -0.008176          5.156298          0.000000
H             -0.038837          6.138422          0.000000
H             -0.927273          4.808783          0.000000

