%NProcShared=4 
%Mem=4GB  
%Chk=H2O_H2O_591.chk 

#p CCSD(T)/cc-pVTZ 

H2O_H2O_591

0 1
O             -0.000000         -0.009833          0.000000
H             -0.799571         -0.580965          0.000000
H              0.799571         -0.580965          0.000000
O             -0.008516          2.204060          0.000000
H             -0.103345          3.182075          0.000000
H             -0.902916          1.797177          0.000000

