%NProcShared=4 
%Mem=4GB  
%Chk=H2O_H2O_3268.chk 

#p CCSD(T)/cc-pVTZ 

H2O_H2O_3268

0 1
O             -0.000000         -0.009833          0.000000
H             -0.799571         -0.580965          0.000000
H              0.799571         -0.580965          0.000000
O             -0.009085          5.048231          0.000000
H             -0.230759          6.005502          0.000000
H             -0.842725          4.528086          0.000000

