%NProcShared=4 
%Mem=4GB  
%Chk=H2O_H2O_932.chk 

#p CCSD(T)/cc-pVTZ 

H2O_H2O_932

0 1
O             -0.000000         -0.009833          0.000000
H             -0.799571         -0.580965          0.000000
H              0.799571         -0.580965          0.000000
O             -0.004349          2.580248          0.000000
H              0.460159          3.446122          0.000000
H             -0.974068          2.738839          0.000000

