%NProcShared=4 
%Mem=4GB  
%Chk=H2O_H2O_3321.chk 

#p CCSD(T)/cc-pVTZ 

H2O_H2O_3321

0 1
O             -0.000000         -0.009833          0.000000
H             -0.799571         -0.580965          0.000000
H              0.799571         -0.580965          0.000000
O             -0.009644          5.099570          0.000000
H             -0.413813          5.995200          0.000000
H             -0.725791          4.426784          0.000000

