%NProcShared=4 
%Mem=4GB  
%Chk=H2O_H2O_3232.chk 

#p CCSD(T)/cc-pVTZ 

H2O_H2O_3232

0 1
O             -0.000000         -0.009833          0.000000
H             -0.799571         -0.580965          0.000000
H              0.799571         -0.580965          0.000000
O             -0.004349          5.026696          0.000000
H              0.460159          5.892570          0.000000
H             -0.974068          5.185287          0.000000

