%NProcShared=4 
%Mem=4GB  
%Chk=H2O_H2O_4979.chk 

#p CCSD(T)/cc-pVTZ 

H2O_H2O_4979

0 1
O             -0.000000         -0.009833          0.000000
H             -0.799571         -0.580965          0.000000
H              0.799571         -0.580965          0.000000
O             -0.002545          6.888802          0.000000
H              0.621962          7.647417          0.000000
H             -0.922692          7.233529          0.000000

