%NProcShared=4 
%Mem=4GB  
%Chk=H2O_H2O_1786.chk 

#p CCSD(T)/cc-pVTZ 

H2O_H2O_1786

0 1
O             -0.000000         -0.009833          0.000000
H             -0.799571         -0.580965          0.000000
H              0.799571         -0.580965          0.000000
O             -0.006483          3.482944          0.000000
H              0.218093          4.439538          0.000000
H             -0.984207          3.385149          0.000000

