%NProcShared=4 
%Mem=4GB  
%Chk=H2O_H2O_2617.chk 

#p CCSD(T)/cc-pVTZ 

H2O_H2O_2617

0 1
O             -0.000000         -0.009833          0.000000
H             -0.799571         -0.580965          0.000000
H              0.799571         -0.580965          0.000000
O             -0.008819          4.357430          0.000000
H             -0.167410          5.327149          0.000000
H             -0.874693          3.892921          0.000000

