%NProcShared=4 
%Mem=4GB  
%Chk=H2O_H2O_3861.chk 

#p CCSD(T)/cc-pVTZ 

H2O_H2O_3861

0 1
O             -0.000000         -0.009833          0.000000
H             -0.799571         -0.580965          0.000000
H              0.799571         -0.580965          0.000000
O             -0.006483          5.690065          0.000000
H              0.218093          6.646659          0.000000
H             -0.984207          5.592270          0.000000

