%NProcShared=4 
%Mem=4GB  
%Chk=H2O_H2O_4673.chk 

#p CCSD(T)/cc-pVTZ 

H2O_H2O_4673

0 1
O             -0.000000         -0.009833          0.000000
H             -0.799571         -0.580965          0.000000
H              0.799571         -0.580965          0.000000
O             -0.009812          6.534253          0.000000
H             -0.527427          7.369467          0.000000
H             -0.632016          5.773748          0.000000

