%NProcShared=4 
%Mem=4GB  
%Chk=H2O_H2O_1688.chk 

#p CCSD(T)/cc-pVTZ 

H2O_H2O_1688

0 1
O             -0.000000         -0.009833          0.000000
H             -0.799571         -0.580965          0.000000
H              0.799571         -0.580965          0.000000
O             -0.007393          3.375667          0.000000
H              0.090401          4.353390          0.000000
H             -0.963987          3.151091          0.000000

