%NProcShared=4 
%Mem=4GB  
%Chk=H2O_H2O_3928.chk 

#p CCSD(T)/cc-pVTZ 

H2O_H2O_3928

0 1
O             -0.000000         -0.009833          0.000000
H             -0.799571         -0.580965          0.000000
H              0.799571         -0.580965          0.000000
O             -0.001918          5.772092          0.000000
H              0.670867          6.488238          0.000000
H             -0.897548          6.176261          0.000000

