%NProcShared=4 
%Mem=4GB  
%Chk=H2O_H2O_2369.chk 

#p CCSD(T)/cc-pVTZ 

H2O_H2O_2369

0 1
O             -0.000000         -0.009833          0.000000
H             -0.799571         -0.580965          0.000000
H              0.799571         -0.580965          0.000000
O             -0.009311          4.090323          0.000000
H             -0.293120          5.031046          0.000000
H             -0.807147          3.516769          0.000000

