%NProcShared=4 
%Mem=4GB  
%Chk=H2O_H2O_1027.chk 

#p CCSD(T)/cc-pVTZ 

H2O_H2O_1027

0 1
O             -0.000000         -0.009833          0.000000
H             -0.799571         -0.580965          0.000000
H              0.799571         -0.580965          0.000000
O             -0.001283          2.687545          0.000000
H              0.716900          3.358156          0.000000
H             -0.868562          3.149426          0.000000

