%NProcShared=4 
%Mem=4GB  
%Chk=H2O_H2O_4483.chk 

#p CCSD(T)/cc-pVTZ 

H2O_H2O_4483

0 1
O             -0.000000         -0.009833          0.000000
H             -0.799571         -0.580965          0.000000
H              0.799571         -0.580965          0.000000
O             -0.004917          6.355983          0.000000
H              0.401967          7.250384          0.000000
H             -0.982932          6.450812          0.000000

