%NProcShared=4 
%Mem=4GB  
%Chk=H2O_H2O_1636.chk 

#p CCSD(T)/cc-pVTZ 

H2O_H2O_1636

0 1
O             -0.000000         -0.009833          0.000000
H             -0.799571         -0.580965          0.000000
H              0.799571         -0.580965          0.000000
O             -0.006483          3.323393          0.000000
H              0.218093          4.279987          0.000000
H             -0.984207          3.225599          0.000000

