%NProcShared=4 
%Mem=4GB  
%Chk=H2O_H2O_4813.chk 

#p CCSD(T)/cc-pVTZ 

H2O_H2O_4813

0 1
O             -0.000000         -0.009833          0.000000
H             -0.799571         -0.580965          0.000000
H              0.799571         -0.580965          0.000000
O             -0.007393          6.699644          0.000000
H              0.090401          7.677367          0.000000
H             -0.963987          6.475068          0.000000

