%NProcShared=4 
%Mem=4GB  
%Chk=H2O_H2O_694.chk 

#p CCSD(T)/cc-pVTZ 

H2O_H2O_694

0 1
O             -0.000000         -0.009833          0.000000
H             -0.799571         -0.580965          0.000000
H              0.799571         -0.580965          0.000000
O             -0.009311          2.308672          0.000000
H             -0.293120          3.249394          0.000000
H             -0.807147          1.735117          0.000000

