%NProcShared=4 
%Mem=4GB  
%Chk=H2O_H2O_4257.chk 

#p CCSD(T)/cc-pVTZ 

H2O_H2O_4257

0 1
O             -0.000000         -0.009833          0.000000
H             -0.799571         -0.580965          0.000000
H              0.799571         -0.580965          0.000000
O             -0.004349          6.116960          0.000000
H              0.460159          6.982834          0.000000
H             -0.974068          6.275551          0.000000

