%NProcShared=4 
%Mem=4GB  
%Chk=H2O_H2O_3155.chk 

#p CCSD(T)/cc-pVTZ 

H2O_H2O_3155

0 1
O             -0.000000         -0.009833          0.000000
H             -0.799571         -0.580965          0.000000
H              0.799571         -0.580965          0.000000
O             -0.003161          4.947412          0.000000
H              0.570393          5.745248          0.000000
H             -0.943883          5.231221          0.000000

