%NProcShared=4 
%Mem=4GB  
%Chk=H2O_H2O_3507.chk 

#p CCSD(T)/cc-pVTZ 

H2O_H2O_3507

0 1
O             -0.000000         -0.009833          0.000000
H             -0.799571         -0.580965          0.000000
H              0.799571         -0.580965          0.000000
O             -0.004349          5.319206          0.000000
H              0.460159          6.185080          0.000000
H             -0.974068          5.477797          0.000000

