%NProcShared=4 
%Mem=4GB  
%Chk=H2O_H2O_3075.chk 

#p CCSD(T)/cc-pVTZ 

H2O_H2O_3075

0 1
O             -0.000000         -0.009833          0.000000
H             -0.799571         -0.580965          0.000000
H              0.799571         -0.580965          0.000000
O             -0.000000          4.868159          0.000000
H              0.799571          5.439291          0.000000
H             -0.799571          5.439290          0.000000

