%NProcShared=4 
%Mem=4GB  
%Chk=H2O_H2O_974.chk 

#p CCSD(T)/cc-pVTZ 

H2O_H2O_974

0 1
O             -0.000000         -0.009833          0.000000
H             -0.799571         -0.580965          0.000000
H              0.799571         -0.580965          0.000000
O             -0.009833          2.598021          0.000000
H             -0.580965          3.397592          0.000000
H             -0.580965          1.798449          0.000000

