%NProcShared=4 
%Mem=4GB  
%Chk=H2O_H2O_4884.chk 

#p CCSD(T)/cc-pVTZ 

H2O_H2O_4884

0 1
O             -0.000000         -0.009833          0.000000
H             -0.799571         -0.580965          0.000000
H              0.799571         -0.580965          0.000000
O             -0.005463          6.781112          0.000000
H              0.342052          7.700209          0.000000
H             -0.987586          6.811773          0.000000

