%NProcShared=4 
%Mem=4GB  
%Chk=H2O_H2O_552.chk 

#p CCSD(T)/cc-pVTZ 

H2O_H2O_552

0 1
O             -0.000000         -0.009833          0.000000
H             -0.799571         -0.580965          0.000000
H              0.799571         -0.580965          0.000000
O             -0.001283          2.182301          0.000000
H              0.716900          2.852911          0.000000
H             -0.868562          2.644181          0.000000

