%NProcShared=4 
%Mem=4GB  
%Chk=H2O_H2O_4919.chk 

#p CCSD(T)/cc-pVTZ 

H2O_H2O_4919

0 1
O             -0.000000         -0.009833          0.000000
H             -0.799571         -0.580965          0.000000
H              0.799571         -0.580965          0.000000
O             -0.009311          6.802689          0.000000
H             -0.293120          7.743411          0.000000
H             -0.807147          6.229135          0.000000

