%NProcShared=4 
%Mem=4GB  
%Chk=H2O_H2O_3592.chk 

#p CCSD(T)/cc-pVTZ 

H2O_H2O_3592

0 1
O             -0.000000         -0.009833          0.000000
H             -0.799571         -0.580965          0.000000
H              0.799571         -0.580965          0.000000
O             -0.008819          5.394511          0.000000
H             -0.167410          6.364230          0.000000
H             -0.874693          4.930002          0.000000

