%NProcShared=4 
%Mem=4GB  
%Chk=H2O_H2O_1775.chk 

#p CCSD(T)/cc-pVTZ 

H2O_H2O_1775

0 1
O             -0.000000         -0.009833          0.000000
H             -0.799571         -0.580965          0.000000
H              0.799571         -0.580965          0.000000
O             -0.000000          3.485384          0.000000
H              0.799571          4.056516          0.000000
H             -0.799571          4.056516          0.000000

