%NProcShared=4 
%Mem=4GB  
%Chk=H2O_H2O_3129.chk 

#p CCSD(T)/cc-pVTZ 

H2O_H2O_3129

0 1
O             -0.000000         -0.009833          0.000000
H             -0.799571         -0.580965          0.000000
H              0.799571         -0.580965          0.000000
O             -0.002545          4.921007          0.000000
H              0.621962          5.679623          0.000000
H             -0.922692          5.265734          0.000000

