%NProcShared=4 
%Mem=4GB  
%Chk=H2O_H2O_1969.chk 

#p CCSD(T)/cc-pVTZ 

H2O_H2O_1969

0 1
O             -0.000000         -0.009833          0.000000
H             -0.799571         -0.580965          0.000000
H              0.799571         -0.580965          0.000000
O             -0.009311          3.664854          0.000000
H             -0.293120          4.605577          0.000000
H             -0.807147          3.091300          0.000000

