%NProcShared=4 
%Mem=4GB  
%Chk=H2O_H2O_3976.chk 

#p CCSD(T)/cc-pVTZ 

H2O_H2O_3976

0 1
O             -0.000000         -0.009833          0.000000
H             -0.799571         -0.580965          0.000000
H              0.799571         -0.580965          0.000000
O             -0.000643          5.825443          0.000000
H              0.759863          6.447647          0.000000
H             -0.835856          6.343058          0.000000

