%NProcShared=4 
%Mem=4GB  
%Chk=H2O_H2O_3415.chk 

#p CCSD(T)/cc-pVTZ 

H2O_H2O_3415

0 1
O             -0.000000         -0.009833          0.000000
H             -0.799571         -0.580965          0.000000
H              0.799571         -0.580965          0.000000
O             -0.008176          5.209482          0.000000
H             -0.038837          6.191606          0.000000
H             -0.927273          4.861967          0.000000

