%NProcShared=4 
%Mem=4GB  
%Chk=H2O_H2O_291.chk 

#p CCSD(T)/cc-pVTZ 

H2O_H2O_291

0 1
O             -0.000000         -0.009833          0.000000
H             -0.799571         -0.580965          0.000000
H              0.799571         -0.580965          0.000000
O             -0.008516          1.884958          0.000000
H             -0.103345          2.862973          0.000000
H             -0.902916          1.478075          0.000000

