%NProcShared=4 
%Mem=4GB  
%Chk=H2O_H2O_2160.chk 

#p CCSD(T)/cc-pVTZ 

H2O_H2O_2160

0 1
O             -0.000000         -0.009833          0.000000
H             -0.799571         -0.580965          0.000000
H              0.799571         -0.580965          0.000000
O             -0.005986          3.882229          0.000000
H              0.280674          4.822087          0.000000
H             -0.988012          3.848591          0.000000

