%NProcShared=4 
%Mem=4GB  
%Chk=H2O_H2O_3689.chk 

#p CCSD(T)/cc-pVTZ 

H2O_H2O_3689

0 1
O             -0.000000         -0.009833          0.000000
H             -0.799571         -0.580965          0.000000
H              0.799571         -0.580965          0.000000
O             -0.007801          5.502515          0.000000
H              0.025838          6.484541          0.000000
H             -0.947659          5.215856          0.000000

