%NProcShared=4 
%Mem=4GB  
%Chk=H2O_H2O_2277.chk 

#p CCSD(T)/cc-pVTZ 

H2O_H2O_2277

0 1
O             -0.000000         -0.009833          0.000000
H             -0.799571         -0.580965          0.000000
H              0.799571         -0.580965          0.000000
O             -0.001283          4.017136          0.000000
H              0.716900          4.687747          0.000000
H             -0.868562          4.479017          0.000000

