%NProcShared=4 
%Mem=4GB  
%Chk=H2O_H2O_4640.chk 

#p CCSD(T)/cc-pVTZ 

H2O_H2O_4640

0 1
O             -0.000000         -0.009833          0.000000
H             -0.799571         -0.580965          0.000000
H              0.799571         -0.580965          0.000000
O             -0.008176          6.512481          0.000000
H             -0.038837          7.494604          0.000000
H             -0.927273          6.164966          0.000000

