%NProcShared=4 
%Mem=4GB  
%Chk=H2O_H2O_4405.chk 

#p CCSD(T)/cc-pVTZ 

H2O_H2O_4405

0 1
O             -0.000000         -0.009833          0.000000
H             -0.799571         -0.580965          0.000000
H              0.799571         -0.580965          0.000000
O             -0.003161          6.277003          0.000000
H              0.570393          7.074839          0.000000
H             -0.943883          6.560812          0.000000

