%NProcShared=4 
%Mem=4GB  
%Chk=H2O_H2O_902.chk 

#p CCSD(T)/cc-pVTZ 

H2O_H2O_902

0 1
O             -0.000000         -0.009833          0.000000
H             -0.799571         -0.580965          0.000000
H              0.799571         -0.580965          0.000000
O             -0.001283          2.554586          0.000000
H              0.716900          3.225197          0.000000
H             -0.868562          3.016467          0.000000

