%NProcShared=4 
%Mem=4GB  
%Chk=H2O_H2O_102.chk 

#p CCSD(T)/cc-pVTZ 

H2O_H2O_102

0 1
O             -0.000000         -0.009833          0.000000
H             -0.799571         -0.580965          0.000000
H              0.799571         -0.580965          0.000000
O             -0.001283          1.703648          0.000000
H              0.716900          2.374259          0.000000
H             -0.868562          2.165529          0.000000

