%NProcShared=4 
%Mem=4GB  
%Chk=H2O_H2O_4293.chk 

#p CCSD(T)/cc-pVTZ 

H2O_H2O_4293

0 1
O             -0.000000         -0.009833          0.000000
H             -0.799571         -0.580965          0.000000
H              0.799571         -0.580965          0.000000
O             -0.009085          6.138496          0.000000
H             -0.230759          7.095766          0.000000
H             -0.842725          5.618351          0.000000

