%NProcShared=4 
%Mem=4GB  
%Chk=H2O_H2O_2202.chk 

#p CCSD(T)/cc-pVTZ 

H2O_H2O_2202

0 1
O             -0.000000         -0.009833          0.000000
H             -0.799571         -0.580965          0.000000
H              0.799571         -0.580965          0.000000
O             -0.001283          3.937361          0.000000
H              0.716900          4.607972          0.000000
H             -0.868562          4.399242          0.000000

