%NProcShared=4 
%Mem=4GB  
%Chk=H2O_H2O_2694.chk 

#p CCSD(T)/cc-pVTZ 

H2O_H2O_2694

0 1
O             -0.000000         -0.009833          0.000000
H             -0.799571         -0.580965          0.000000
H              0.799571         -0.580965          0.000000
O             -0.009311          4.436017          0.000000
H             -0.293120          5.376740          0.000000
H             -0.807147          3.862463          0.000000

