%NProcShared=4 
%Mem=4GB  
%Chk=H2O_H2O_2023.chk 

#p CCSD(T)/cc-pVTZ 

H2O_H2O_2023

0 1
O             -0.000000         -0.009833          0.000000
H             -0.799571         -0.580965          0.000000
H              0.799571         -0.580965          0.000000
O             -0.009812          3.715520          0.000000
H             -0.527427          4.550734          0.000000
H             -0.632016          2.955015          0.000000

