%NProcShared=4 
%Mem=4GB  
%Chk=H2O_H2O_1435.chk 

#p CCSD(T)/cc-pVTZ 

H2O_H2O_1435

0 1
O             -0.000000         -0.009833          0.000000
H             -0.799571         -0.580965          0.000000
H              0.799571         -0.580965          0.000000
O             -0.005986          3.111067          0.000000
H              0.280674          4.050924          0.000000
H             -0.988012          3.077428          0.000000

