%NProcShared=4 
%Mem=4GB  
%Chk=H2O_H2O_4704.chk 

#p CCSD(T)/cc-pVTZ 

H2O_H2O_4704

0 1
O             -0.000000         -0.009833          0.000000
H             -0.799571         -0.580965          0.000000
H              0.799571         -0.580965          0.000000
O             -0.002545          6.596292          0.000000
H              0.621962          7.354907          0.000000
H             -0.922692          6.941019          0.000000

