%NProcShared=4 
%Mem=4GB  
%Chk=H2O_H2O_2787.chk 

#p CCSD(T)/cc-pVTZ 

H2O_H2O_2787

0 1
O             -0.000000         -0.009833          0.000000
H             -0.799571         -0.580965          0.000000
H              0.799571         -0.580965          0.000000
O             -0.006953          4.546177          0.000000
H              0.154578          5.515410          0.000000
H             -0.976187          4.384646          0.000000

