%NProcShared=4 
%Mem=4GB  
%Chk=H2O_H2O_359.chk 

#p CCSD(T)/cc-pVTZ 

H2O_H2O_359

0 1
O             -0.000000         -0.009833          0.000000
H             -0.799571         -0.580965          0.000000
H              0.799571         -0.580965          0.000000
O             -0.005463          1.967993          0.000000
H              0.342052          2.887090          0.000000
H             -0.987586          1.998654          0.000000

