%NProcShared=4 
%Mem=4GB  
%Chk=H2O_H2O_1887.chk 

#p CCSD(T)/cc-pVTZ 

H2O_H2O_1887

0 1
O             -0.000000         -0.009833          0.000000
H             -0.799571         -0.580965          0.000000
H              0.799571         -0.580965          0.000000
O             -0.006953          3.588871          0.000000
H              0.154578          4.558105          0.000000
H             -0.976187          3.427340          0.000000

