%NProcShared=4 
%Mem=4GB  
%Chk=H2O_H2O_127.chk 

#p CCSD(T)/cc-pVTZ 

H2O_H2O_127

0 1
O             -0.000000         -0.009833          0.000000
H             -0.799571         -0.580965          0.000000
H              0.799571         -0.580965          0.000000
O             -0.001283          1.730240          0.000000
H              0.716900          2.400851          0.000000
H             -0.868562          2.192121          0.000000

