%NProcShared=4 
%Mem=4GB  
%Chk=H2O_H2O_4159.chk 

#p CCSD(T)/cc-pVTZ 

H2O_H2O_4159

0 1
O             -0.000000         -0.009833          0.000000
H             -0.799571         -0.580965          0.000000
H              0.799571         -0.580965          0.000000
O             -0.005463          6.009949          0.000000
H              0.342052          6.929046          0.000000
H             -0.987586          6.040610          0.000000

