%NProcShared=4 
%Mem=4GB  
%Chk=H2O_H2O_3884.chk 

#p CCSD(T)/cc-pVTZ 

H2O_H2O_3884

0 1
O             -0.000000         -0.009833          0.000000
H             -0.799571         -0.580965          0.000000
H              0.799571         -0.580965          0.000000
O             -0.005463          5.717440          0.000000
H              0.342052          6.636537          0.000000
H             -0.987586          5.748101          0.000000

