%NProcShared=4 
%Mem=4GB  
%Chk=H2O_H2O_3756.chk 

#p CCSD(T)/cc-pVTZ 

H2O_H2O_3756

0 1
O             -0.000000         -0.009833          0.000000
H             -0.799571         -0.580965          0.000000
H              0.799571         -0.580965          0.000000
O             -0.003763          5.585389          0.000000
H              0.516382          6.419029          0.000000
H             -0.961033          5.807064          0.000000

