%NProcShared=4 
%Mem=4GB  
%Chk=H2O_H2O_3594.chk 

#p CCSD(T)/cc-pVTZ 

H2O_H2O_3594

0 1
O             -0.000000         -0.009833          0.000000
H             -0.799571         -0.580965          0.000000
H              0.799571         -0.580965          0.000000
O             -0.009311          5.393322          0.000000
H             -0.293120          6.334045          0.000000
H             -0.807147          4.819768          0.000000

