%NProcShared=4 
%Mem=4GB  
%Chk=H2O_H2O_91.chk 

#p CCSD(T)/cc-pVTZ 

H2O_H2O_91

0 1
O             -0.000000         -0.009833          0.000000
H             -0.799571         -0.580965          0.000000
H              0.799571         -0.580965          0.000000
O             -0.008516          1.672224          0.000000
H             -0.103345          2.650239          0.000000
H             -0.902916          1.265340          0.000000

