%NProcShared=4 
%Mem=4GB  
%Chk=H2O_H2O_1673.chk 

#p CCSD(T)/cc-pVTZ 

H2O_H2O_1673

0 1
O             -0.000000         -0.009833          0.000000
H             -0.799571         -0.580965          0.000000
H              0.799571         -0.580965          0.000000
O             -0.009812          3.343235          0.000000
H             -0.527427          4.178448          0.000000
H             -0.632016          2.582729          0.000000

