%NProcShared=4 
%Mem=4GB  
%Chk=H2O_H2O_2294.chk 

#p CCSD(T)/cc-pVTZ 

H2O_H2O_2294

0 1
O             -0.000000         -0.009833          0.000000
H             -0.799571         -0.580965          0.000000
H              0.799571         -0.580965          0.000000
O             -0.009311          4.010548          0.000000
H             -0.293120          4.951271          0.000000
H             -0.807147          3.436994          0.000000

