%NProcShared=4 
%Mem=4GB  
%Chk=H2O_H2O_490.chk 

#p CCSD(T)/cc-pVTZ 

H2O_H2O_490

0 1
O             -0.000000         -0.009833          0.000000
H             -0.799571         -0.580965          0.000000
H              0.799571         -0.580965          0.000000
O             -0.008176          2.098239          0.000000
H             -0.038837          3.080362          0.000000
H             -0.927273          1.750724          0.000000

