%NProcShared=4 
%Mem=4GB  
%Chk=H2O_H2O_3427.chk 

#p CCSD(T)/cc-pVTZ 

H2O_H2O_3427

0 1
O             -0.000000         -0.009833          0.000000
H             -0.799571         -0.580965          0.000000
H              0.799571         -0.580965          0.000000
O             -0.001283          5.240360          0.000000
H              0.716900          5.910971          0.000000
H             -0.868562          5.702241          0.000000

