%NProcShared=4 
%Mem=4GB  
%Chk=H2O_H2O_364.chk 

#p CCSD(T)/cc-pVTZ 

H2O_H2O_364

0 1
O             -0.000000         -0.009833          0.000000
H             -0.799571         -0.580965          0.000000
H              0.799571         -0.580965          0.000000
O             -0.007801          1.965803          0.000000
H              0.025838          2.947829          0.000000
H             -0.947659          1.679144          0.000000

