%NProcShared=4 
%Mem=4GB  
%Chk=H2O_H2O_1018.chk 

#p CCSD(T)/cc-pVTZ 

H2O_H2O_1018

0 1
O             -0.000000         -0.009833          0.000000
H             -0.799571         -0.580965          0.000000
H              0.799571         -0.580965          0.000000
O             -0.009085          2.654967          0.000000
H             -0.230759          3.612238          0.000000
H             -0.842725          2.134823          0.000000

