%NProcShared=4 
%Mem=4GB  
%Chk=H2O_H2O_3539.chk 

#p CCSD(T)/cc-pVTZ 

H2O_H2O_3539

0 1
O             -0.000000         -0.009833          0.000000
H             -0.799571         -0.580965          0.000000
H              0.799571         -0.580965          0.000000
O             -0.007801          5.342964          0.000000
H              0.025838          6.324990          0.000000
H             -0.947659          5.056305          0.000000

