%NProcShared=4 
%Mem=4GB  
%Chk=H2O_H2O_36.chk 

#p CCSD(T)/cc-pVTZ 

H2O_H2O_36

0 1
O             -0.000000         -0.009833          0.000000
H             -0.799571         -0.580965          0.000000
H              0.799571         -0.580965          0.000000
O             -0.006483          1.621516          0.000000
H              0.218093          2.578110          0.000000
H             -0.984207          1.523722          0.000000

