%NProcShared=4 
%Mem=4GB  
%Chk=H2O_H2O_4798.chk 

#p CCSD(T)/cc-pVTZ 

H2O_H2O_4798

0 1
O             -0.000000         -0.009833          0.000000
H             -0.799571         -0.580965          0.000000
H              0.799571         -0.580965          0.000000
O             -0.009812          6.667212          0.000000
H             -0.527427          7.502426          0.000000
H             -0.632016          5.906707          0.000000

