%NProcShared=4 
%Mem=4GB  
%Chk=H2O_H2O_3111.chk 

#p CCSD(T)/cc-pVTZ 

H2O_H2O_3111

0 1
O             -0.000000         -0.009833          0.000000
H             -0.799571         -0.580965          0.000000
H              0.799571         -0.580965          0.000000
O             -0.006483          4.892310          0.000000
H              0.218093          5.848904          0.000000
H             -0.984207          4.794516          0.000000

