%NProcShared=4 
%Mem=4GB  
%Chk=H2O_H2O_1069.chk 

#p CCSD(T)/cc-pVTZ 

H2O_H2O_1069

0 1
O             -0.000000         -0.009833          0.000000
H             -0.799571         -0.580965          0.000000
H              0.799571         -0.580965          0.000000
O             -0.009311          2.707549          0.000000
H             -0.293120          3.648271          0.000000
H             -0.807147          2.133995          0.000000

