%NProcShared=4 
%Mem=4GB  
%Chk=H2O_H2O_2833.chk 

#p CCSD(T)/cc-pVTZ 

H2O_H2O_2833

0 1
O             -0.000000         -0.009833          0.000000
H             -0.799571         -0.580965          0.000000
H              0.799571         -0.580965          0.000000
O             -0.004917          4.600923          0.000000
H              0.401967          5.495324          0.000000
H             -0.982932          4.695752          0.000000

