%NProcShared=4 
%Mem=4GB  
%Chk=H2O_H2O_4264.chk 

#p CCSD(T)/cc-pVTZ 

H2O_H2O_4264

0 1
O             -0.000000         -0.009833          0.000000
H             -0.799571         -0.580965          0.000000
H              0.799571         -0.580965          0.000000
O             -0.007801          6.114127          0.000000
H              0.025838          7.096153          0.000000
H             -0.947659          5.827467          0.000000

