%NProcShared=4 
%Mem=4GB  
%Chk=H2O_H2O_321.chk 

#p CCSD(T)/cc-pVTZ 

H2O_H2O_321

0 1
O             -0.000000         -0.009833          0.000000
H             -0.799571         -0.580965          0.000000
H              0.799571         -0.580965          0.000000
O             -0.009644          1.908552          0.000000
H             -0.413813          2.804182          0.000000
H             -0.725791          1.235766          0.000000

