%NProcShared=4 
%Mem=4GB  
%Chk=H2O_H2O_2440.chk 

#p CCSD(T)/cc-pVTZ 

H2O_H2O_2440

0 1
O             -0.000000         -0.009833          0.000000
H             -0.799571         -0.580965          0.000000
H              0.799571         -0.580965          0.000000
O             -0.008176          4.172401          0.000000
H             -0.038837          5.154524          0.000000
H             -0.927273          3.824886          0.000000

