%NProcShared=4 
%Mem=4GB  
%Chk=H2O_H2O_4842.chk 

#p CCSD(T)/cc-pVTZ 

H2O_H2O_4842

0 1
O             -0.000000         -0.009833          0.000000
H             -0.799571         -0.580965          0.000000
H              0.799571         -0.580965          0.000000
O             -0.008819          6.724102          0.000000
H             -0.167410          7.693821          0.000000
H             -0.874693          6.259593          0.000000

