%NProcShared=4 
%Mem=4GB  
%Chk=H2O_H2O_1105.chk 

#p CCSD(T)/cc-pVTZ 

H2O_H2O_1105

0 1
O             -0.000000         -0.009833          0.000000
H             -0.799571         -0.580965          0.000000
H              0.799571         -0.580965          0.000000
O             -0.003161          2.766883          0.000000
H              0.570393          3.564719          0.000000
H             -0.943883          3.050691          0.000000

