%NProcShared=4 
%Mem=4GB  
%Chk=H2O_H2O_1530.chk 

#p CCSD(T)/cc-pVTZ 

H2O_H2O_1530

0 1
O             -0.000000         -0.009833          0.000000
H             -0.799571         -0.580965          0.000000
H              0.799571         -0.580965          0.000000
O             -0.003161          3.218944          0.000000
H              0.570393          4.016780          0.000000
H             -0.943883          3.502752          0.000000

