%NProcShared=4 
%Mem=4GB  
%Chk=H2O_H2O_268.chk 

#p CCSD(T)/cc-pVTZ 

H2O_H2O_268

0 1
O             -0.000000         -0.009833          0.000000
H             -0.799571         -0.580965          0.000000
H              0.799571         -0.580965          0.000000
O             -0.009085          1.857213          0.000000
H             -0.230759          2.814483          0.000000
H             -0.842725          1.337068          0.000000

