%NProcShared=4 
%Mem=4GB  
%Chk=H2O_H2O_2252.chk 

#p CCSD(T)/cc-pVTZ 

H2O_H2O_2252

0 1
O             -0.000000         -0.009833          0.000000
H             -0.799571         -0.580965          0.000000
H              0.799571         -0.580965          0.000000
O             -0.001283          3.990544          0.000000
H              0.716900          4.661155          0.000000
H             -0.868562          4.452425          0.000000

