%NProcShared=4 
%Mem=4GB  
%Chk=H2O_H2O_4473.chk 

#p CCSD(T)/cc-pVTZ 

H2O_H2O_4473

0 1
O             -0.000000         -0.009833          0.000000
H             -0.799571         -0.580965          0.000000
H              0.799571         -0.580965          0.000000
O             -0.009812          6.321519          0.000000
H             -0.527427          7.156732          0.000000
H             -0.632016          5.561013          0.000000

