%NProcShared=4 
%Mem=4GB  
%Chk=H2O_H2O_1629.chk 

#p CCSD(T)/cc-pVTZ 

H2O_H2O_1629

0 1
O             -0.000000         -0.009833          0.000000
H             -0.799571         -0.580965          0.000000
H              0.799571         -0.580965          0.000000
O             -0.002545          3.325498          0.000000
H              0.621962          4.084113          0.000000
H             -0.922692          3.670225          0.000000

