%NProcShared=4 
%Mem=4GB  
%Chk=H2O_H2O_3766.chk 

#p CCSD(T)/cc-pVTZ 

H2O_H2O_3766

0 1
O             -0.000000         -0.009833          0.000000
H             -0.799571         -0.580965          0.000000
H              0.799571         -0.580965          0.000000
O             -0.008516          5.581221          0.000000
H             -0.103345          6.559236          0.000000
H             -0.902916          5.174338          0.000000

