%NProcShared=4 
%Mem=4GB  
%Chk=H2O_H2O_2320.chk 

#p CCSD(T)/cc-pVTZ 

H2O_H2O_2320

0 1
O             -0.000000         -0.009833          0.000000
H             -0.799571         -0.580965          0.000000
H              0.799571         -0.580965          0.000000
O             -0.009498          4.036524          0.000000
H             -0.354225          4.956670          0.000000
H             -0.768113          3.412017          0.000000

