%NProcShared=4 
%Mem=4GB  
%Chk=H2O_H2O_467.chk 

#p CCSD(T)/cc-pVTZ 

H2O_H2O_467

0 1
O             -0.000000         -0.009833          0.000000
H             -0.799571         -0.580965          0.000000
H              0.799571         -0.580965          0.000000
O             -0.008819          2.070534          0.000000
H             -0.167410          3.040253          0.000000
H             -0.874693          1.606025          0.000000

