%NProcShared=4 
%Mem=4GB  
%Chk=H2O_H2O_4323.chk 

#p CCSD(T)/cc-pVTZ 

H2O_H2O_4323

0 1
O             -0.000000         -0.009833          0.000000
H             -0.799571         -0.580965          0.000000
H              0.799571         -0.580965          0.000000
O             -0.009812          6.161968          0.000000
H             -0.527427          6.997181          0.000000
H             -0.632016          5.401462          0.000000

