%NProcShared=4 
%Mem=4GB  
%Chk=H2O_H2O_608.chk 

#p CCSD(T)/cc-pVTZ 

H2O_H2O_608

0 1
O             -0.000000         -0.009833          0.000000
H             -0.799571         -0.580965          0.000000
H              0.799571         -0.580965          0.000000
O             -0.004917          2.234251          0.000000
H              0.401967          3.128652          0.000000
H             -0.982932          2.329080          0.000000

