%NProcShared=4 
%Mem=4GB  
%Chk=H2O_H2O_1346.chk 

#p CCSD(T)/cc-pVTZ 

H2O_H2O_1346

0 1
O             -0.000000         -0.009833          0.000000
H             -0.799571         -0.580965          0.000000
H              0.799571         -0.580965          0.000000
O             -0.009644          2.998817          0.000000
H             -0.413813          3.894447          0.000000
H             -0.725791          2.326031          0.000000

