%NProcShared=4 
%Mem=4GB  
%Chk=H2O_H2O_1658.chk 

#p CCSD(T)/cc-pVTZ 

H2O_H2O_1658

0 1
O             -0.000000         -0.009833          0.000000
H             -0.799571         -0.580965          0.000000
H              0.799571         -0.580965          0.000000
O             -0.004917          3.351107          0.000000
H              0.401967          4.245508          0.000000
H             -0.982932          3.445936          0.000000

