%NProcShared=4 
%Mem=4GB  
%Chk=H2O_H2O_3023.chk 

#p CCSD(T)/cc-pVTZ 

H2O_H2O_3023

0 1
O             -0.000000         -0.009833          0.000000
H             -0.799571         -0.580965          0.000000
H              0.799571         -0.580965          0.000000
O             -0.009812          4.779193          0.000000
H             -0.527427          5.614406          0.000000
H             -0.632016          4.018687          0.000000

