%NProcShared=4 
%Mem=4GB  
%Chk=H2O_H2O_190.chk 

#p CCSD(T)/cc-pVTZ 

H2O_H2O_190

0 1
O             -0.000000         -0.009833          0.000000
H             -0.799571         -0.580965          0.000000
H              0.799571         -0.580965          0.000000
O             -0.008176          1.779137          0.000000
H             -0.038837          2.761261          0.000000
H             -0.927273          1.431622          0.000000

