%NProcShared=4 
%Mem=4GB  
%Chk=H2O_H2O_1083.chk 

#p CCSD(T)/cc-pVTZ 

H2O_H2O_1083

0 1
O             -0.000000         -0.009833          0.000000
H             -0.799571         -0.580965          0.000000
H              0.799571         -0.580965          0.000000
O             -0.004917          2.739496          0.000000
H              0.401967          3.633896          0.000000
H             -0.982932          2.834325          0.000000

