%NProcShared=4 
%Mem=4GB  
%Chk=H2O_H2O_4886.chk 

#p CCSD(T)/cc-pVTZ 

H2O_H2O_4886

0 1
O             -0.000000         -0.009833          0.000000
H             -0.799571         -0.580965          0.000000
H              0.799571         -0.580965          0.000000
O             -0.006483          6.780329          0.000000
H              0.218093          7.736923          0.000000
H             -0.984207          6.682535          0.000000

