%NProcShared=4 
%Mem=4GB  
%Chk=H2O_H2O_3076.chk 

#p CCSD(T)/cc-pVTZ 

H2O_H2O_3076

0 1
O             -0.000000         -0.009833          0.000000
H             -0.799571         -0.580965          0.000000
H              0.799571         -0.580965          0.000000
O             -0.000643          4.868137          0.000000
H              0.759863          5.490341          0.000000
H             -0.835856          5.385752          0.000000

