%NProcShared=4 
%Mem=4GB  
%Chk=H2O_H2O_201.chk 

#p CCSD(T)/cc-pVTZ 

H2O_H2O_201

0 1
O             -0.000000         -0.009833          0.000000
H             -0.799571         -0.580965          0.000000
H              0.799571         -0.580965          0.000000
O             -0.000643          1.810078          0.000000
H              0.759863          2.432282          0.000000
H             -0.835856          2.327693          0.000000

