%NProcShared=4 
%Mem=4GB  
%Chk=H2O_H2O_4598.chk 

#p CCSD(T)/cc-pVTZ 

H2O_H2O_4598

0 1
O             -0.000000         -0.009833          0.000000
H             -0.799571         -0.580965          0.000000
H              0.799571         -0.580965          0.000000
O             -0.009812          6.454478          0.000000
H             -0.527427          7.289691          0.000000
H             -0.632016          5.693972          0.000000

