%NProcShared=4 
%Mem=4GB  
%Chk=H2O_H2O_147.chk 

#p CCSD(T)/cc-pVTZ 

H2O_H2O_147

0 1
O             -0.000000         -0.009833          0.000000
H             -0.799571         -0.580965          0.000000
H              0.799571         -0.580965          0.000000
O             -0.009749          1.721774          0.000000
H             -0.471630          2.589053          0.000000
H             -0.680360          1.003591          0.000000

