%NProcShared=4 
%Mem=4GB  
%Chk=H2O_H2O_4061.chk 

#p CCSD(T)/cc-pVTZ 

H2O_H2O_4061

0 1
O             -0.000000         -0.009833          0.000000
H             -0.799571         -0.580965          0.000000
H              0.799571         -0.580965          0.000000
O             -0.006483          5.902799          0.000000
H              0.218093          6.859393          0.000000
H             -0.984207          5.805005          0.000000

