%NProcShared=4 
%Mem=4GB  
%Chk=H2O_H2O_4713.chk 

#p CCSD(T)/cc-pVTZ 

H2O_H2O_4713

0 1
O             -0.000000         -0.009833          0.000000
H             -0.799571         -0.580965          0.000000
H              0.799571         -0.580965          0.000000
O             -0.007393          6.593277          0.000000
H              0.090401          7.571000          0.000000
H             -0.963987          6.368701          0.000000

