%NProcShared=4 
%Mem=4GB  
%Chk=H2O_H2O_584.chk 

#p CCSD(T)/cc-pVTZ 

H2O_H2O_584

0 1
O             -0.000000         -0.009833          0.000000
H             -0.799571         -0.580965          0.000000
H              0.799571         -0.580965          0.000000
O             -0.005463          2.207319          0.000000
H              0.342052          3.126416          0.000000
H             -0.987586          2.237980          0.000000

