%NProcShared=4 
%Mem=4GB  
%Chk=H2O_H2O_4647.chk 

#p CCSD(T)/cc-pVTZ 

H2O_H2O_4647

0 1
O             -0.000000         -0.009833          0.000000
H             -0.799571         -0.580965          0.000000
H              0.799571         -0.580965          0.000000
O             -0.009749          6.508302          0.000000
H             -0.471630          7.375580          0.000000
H             -0.680360          5.790118          0.000000

