%NProcShared=4 
%Mem=4GB  
%Chk=H2O_H2O_3113.chk 

#p CCSD(T)/cc-pVTZ 

H2O_H2O_3113

0 1
O             -0.000000         -0.009833          0.000000
H             -0.799571         -0.580965          0.000000
H              0.799571         -0.580965          0.000000
O             -0.007393          4.891401          0.000000
H              0.090401          5.869124          0.000000
H             -0.963987          4.666824          0.000000

