%NProcShared=4 
%Mem=4GB  
%Chk=H2O_H2O_3681.chk 

#p CCSD(T)/cc-pVTZ 

H2O_H2O_3681

0 1
O             -0.000000         -0.009833          0.000000
H             -0.799571         -0.580965          0.000000
H              0.799571         -0.580965          0.000000
O             -0.003763          5.505614          0.000000
H              0.516382          6.339253          0.000000
H             -0.961033          5.727288          0.000000

