%NProcShared=4 
%Mem=4GB  
%Chk=H2O_H2O_1588.chk 

#p CCSD(T)/cc-pVTZ 

H2O_H2O_1588

0 1
O             -0.000000         -0.009833          0.000000
H             -0.799571         -0.580965          0.000000
H              0.799571         -0.580965          0.000000
O             -0.007393          3.269300          0.000000
H              0.090401          4.247023          0.000000
H             -0.963987          3.044724          0.000000

