%NProcShared=4 
%Mem=4GB  
%Chk=H2O_H2O_327.chk 

#p CCSD(T)/cc-pVTZ 

H2O_H2O_327

0 1
O             -0.000000         -0.009833          0.000000
H             -0.799571         -0.580965          0.000000
H              0.799571         -0.580965          0.000000
O             -0.001283          1.942974          0.000000
H              0.716900          2.613585          0.000000
H             -0.868562          2.404855          0.000000

