%NProcShared=4 
%Mem=4GB  
%Chk=H2O_H2O_4459.chk 

#p CCSD(T)/cc-pVTZ 

H2O_H2O_4459

0 1
O             -0.000000         -0.009833          0.000000
H             -0.799571         -0.580965          0.000000
H              0.799571         -0.580965          0.000000
O             -0.005463          6.329052          0.000000
H              0.342052          7.248149          0.000000
H             -0.987586          6.359712          0.000000

