%NProcShared=4 
%Mem=4GB  
%Chk=H2O_H2O_1454.chk 

#p CCSD(T)/cc-pVTZ 

H2O_H2O_1454

0 1
O             -0.000000         -0.009833          0.000000
H             -0.799571         -0.580965          0.000000
H              0.799571         -0.580965          0.000000
O             -0.002545          3.139355          0.000000
H              0.621962          3.897971          0.000000
H             -0.922692          3.484082          0.000000

