%NProcShared=4 
%Mem=4GB  
%Chk=H2O_H2O_146.chk 

#p CCSD(T)/cc-pVTZ 

H2O_H2O_146

0 1
O             -0.000000         -0.009833          0.000000
H             -0.799571         -0.580965          0.000000
H              0.799571         -0.580965          0.000000
O             -0.009644          1.722409          0.000000
H             -0.413813          2.618039          0.000000
H             -0.725791          1.049624          0.000000

