%NProcShared=4 
%Mem=4GB  
%Chk=H2O_H2O_3488.chk 

#p CCSD(T)/cc-pVTZ 

H2O_H2O_3488

0 1
O             -0.000000         -0.009833          0.000000
H             -0.799571         -0.580965          0.000000
H              0.799571         -0.580965          0.000000
O             -0.007393          5.290278          0.000000
H              0.090401          6.268001          0.000000
H             -0.963987          5.065702          0.000000

