%NProcShared=4 
%Mem=4GB  
%Chk=H2O_H2O_2148.chk 

#p CCSD(T)/cc-pVTZ 

H2O_H2O_2148

0 1
O             -0.000000         -0.009833          0.000000
H             -0.799571         -0.580965          0.000000
H              0.799571         -0.580965          0.000000
O             -0.009812          3.848479          0.000000
H             -0.527427          4.683693          0.000000
H             -0.632016          3.087974          0.000000

