%NProcShared=4 
%Mem=4GB  
%Chk=H2O_H2O_197.chk 

#p CCSD(T)/cc-pVTZ 

H2O_H2O_197

0 1
O             -0.000000         -0.009833          0.000000
H             -0.799571         -0.580965          0.000000
H              0.799571         -0.580965          0.000000
O             -0.009749          1.774958          0.000000
H             -0.471630          2.642237          0.000000
H             -0.680360          1.056775          0.000000

