%NProcShared=4 
%Mem=4GB  
%Chk=H2O_H2O_966.chk 

#p CCSD(T)/cc-pVTZ 

H2O_H2O_966

0 1
O             -0.000000         -0.009833          0.000000
H             -0.799571         -0.580965          0.000000
H              0.799571         -0.580965          0.000000
O             -0.008516          2.602937          0.000000
H             -0.103345          3.580953          0.000000
H             -0.902916          2.196054          0.000000

