%NProcShared=4 
%Mem=4GB  
%Chk=H2O_H2O_4012.chk 

#p CCSD(T)/cc-pVTZ 

H2O_H2O_4012

0 1
O             -0.000000         -0.009833          0.000000
H             -0.799571         -0.580965          0.000000
H              0.799571         -0.580965          0.000000
O             -0.006953          5.849176          0.000000
H              0.154578          6.818410          0.000000
H             -0.976187          5.687645          0.000000

