%NProcShared=4 
%Mem=4GB  
%Chk=H2O_H2O_1914.chk 

#p CCSD(T)/cc-pVTZ 

H2O_H2O_1914

0 1
O             -0.000000         -0.009833          0.000000
H             -0.799571         -0.580965          0.000000
H              0.799571         -0.580965          0.000000
O             -0.007801          3.614496          0.000000
H              0.025838          4.596522          0.000000
H             -0.947659          3.327837          0.000000

