%NProcShared=4 
%Mem=4GB  
%Chk=H2O_H2O_4819.chk 

#p CCSD(T)/cc-pVTZ 

H2O_H2O_4819

0 1
O             -0.000000         -0.009833          0.000000
H             -0.799571         -0.580965          0.000000
H              0.799571         -0.580965          0.000000
O             -0.009311          6.696322          0.000000
H             -0.293120          7.637044          0.000000
H             -0.807147          6.122768          0.000000

