%NProcShared=4 
%Mem=4GB  
%Chk=H2O_H2O_299.chk 

#p CCSD(T)/cc-pVTZ 

H2O_H2O_299

0 1
O             -0.000000         -0.009833          0.000000
H             -0.799571         -0.580965          0.000000
H              0.799571         -0.580965          0.000000
O             -0.009833          1.880042          0.000000
H             -0.580965          2.679613          0.000000
H             -0.580965          1.080470          0.000000

