%NProcShared=4 
%Mem=4GB  
%Chk=H2O_H2O_4312.chk 

#p CCSD(T)/cc-pVTZ 

H2O_H2O_4312

0 1
O             -0.000000         -0.009833          0.000000
H             -0.799571         -0.580965          0.000000
H              0.799571         -0.580965          0.000000
O             -0.006953          6.168278          0.000000
H              0.154578          7.137511          0.000000
H             -0.976187          6.006747          0.000000

