%NProcShared=4 
%Mem=4GB  
%Chk=H2O_H2O_4931.chk 

#p CCSD(T)/cc-pVTZ 

H2O_H2O_4931

0 1
O             -0.000000         -0.009833          0.000000
H             -0.799571         -0.580965          0.000000
H              0.799571         -0.580965          0.000000
O             -0.003763          6.835205          0.000000
H              0.516382          7.668844          0.000000
H             -0.961033          7.056879          0.000000

