%NProcShared=4 
%Mem=4GB  
%Chk=H2O_H2O_1120.chk 

#p CCSD(T)/cc-pVTZ 

H2O_H2O_1120

0 1
O             -0.000000         -0.009833          0.000000
H             -0.799571         -0.580965          0.000000
H              0.799571         -0.580965          0.000000
O             -0.009498          2.760117          0.000000
H             -0.354225          3.680263          0.000000
H             -0.768113          2.135610          0.000000

