%NProcShared=4 
%Mem=4GB  
%Chk=H2O_H2O_1918.chk 

#p CCSD(T)/cc-pVTZ 

H2O_H2O_1918

0 1
O             -0.000000         -0.009833          0.000000
H             -0.799571         -0.580965          0.000000
H              0.799571         -0.580965          0.000000
O             -0.009085          3.612273          0.000000
H             -0.230759          4.569543          0.000000
H             -0.842725          3.092128          0.000000

