%NProcShared=4 
%Mem=4GB  
%Chk=H2O_H2O_3649.chk 

#p CCSD(T)/cc-pVTZ 

H2O_H2O_3649

0 1
O             -0.000000         -0.009833          0.000000
H             -0.799571         -0.580965          0.000000
H              0.799571         -0.580965          0.000000
O             -0.009833          5.443346          0.000000
H             -0.580965          6.242917          0.000000
H             -0.580965          4.643774          0.000000

