%NProcShared=4 
%Mem=4GB  
%Chk=H2O_H2O_4077.chk 

#p CCSD(T)/cc-pVTZ 

H2O_H2O_4077

0 1
O             -0.000000         -0.009833          0.000000
H             -0.799571         -0.580965          0.000000
H              0.799571         -0.580965          0.000000
O             -0.001283          5.931747          0.000000
H              0.716900          6.602358          0.000000
H             -0.868562          6.393628          0.000000

