%NProcShared=4 
%Mem=4GB  
%Chk=H2O_H2O_1045.chk 

#p CCSD(T)/cc-pVTZ 

H2O_H2O_1045

0 1
O             -0.000000         -0.009833          0.000000
H             -0.799571         -0.580965          0.000000
H              0.799571         -0.580965          0.000000
O             -0.009498          2.680341          0.000000
H             -0.354225          3.600488          0.000000
H             -0.768113          2.055834          0.000000

