%NProcShared=4 
%Mem=4GB  
%Chk=H2O_H2O_3059.chk 

#p CCSD(T)/cc-pVTZ 

H2O_H2O_3059

0 1
O             -0.000000         -0.009833          0.000000
H             -0.799571         -0.580965          0.000000
H              0.799571         -0.580965          0.000000
O             -0.005463          4.839910          0.000000
H              0.342052          5.759007          0.000000
H             -0.987586          4.870570          0.000000

