%NProcShared=4 
%Mem=4GB  
%Chk=H2O_H2O_3575.chk 

#p CCSD(T)/cc-pVTZ 

H2O_H2O_3575

0 1
O             -0.000000         -0.009833          0.000000
H             -0.799571         -0.580965          0.000000
H              0.799571         -0.580965          0.000000
O             -0.000000          5.399995          0.000000
H              0.799571          5.971127          0.000000
H             -0.799571          5.971127          0.000000

