%NProcShared=4 
%Mem=4GB  
%Chk=H2O_H2O_4993.chk 

#p CCSD(T)/cc-pVTZ 

H2O_H2O_4993

0 1
O             -0.000000         -0.009833          0.000000
H             -0.799571         -0.580965          0.000000
H              0.799571         -0.580965          0.000000
O             -0.009085          6.883067          0.000000
H             -0.230759          7.840337          0.000000
H             -0.842725          6.362922          0.000000

