%NProcShared=4 
%Mem=4GB  
%Chk=H2O_H2O_4721.chk 

#p CCSD(T)/cc-pVTZ 

H2O_H2O_4721

0 1
O             -0.000000         -0.009833          0.000000
H             -0.799571         -0.580965          0.000000
H              0.799571         -0.580965          0.000000
O             -0.009644          6.588712          0.000000
H             -0.413813          7.484342          0.000000
H             -0.725791          5.915927          0.000000

