%NProcShared=4 
%Mem=4GB  
%Chk=H2O_H2O_4751.chk 

#p CCSD(T)/cc-pVTZ 

H2O_H2O_4751

0 1
O             -0.000000         -0.009833          0.000000
H             -0.799571         -0.580965          0.000000
H              0.799571         -0.580965          0.000000
O             -0.000643          6.649790          0.000000
H              0.759863          7.271993          0.000000
H             -0.835856          7.167404          0.000000

