%NProcShared=4 
%Mem=4GB  
%Chk=H2O_H2O_2532.chk 

#p CCSD(T)/cc-pVTZ 

H2O_H2O_2532

0 1
O             -0.000000         -0.009833          0.000000
H             -0.799571         -0.580965          0.000000
H              0.799571         -0.580965          0.000000
O             -0.004349          4.282124          0.000000
H              0.460159          5.147998          0.000000
H             -0.974068          4.440716          0.000000

