%NProcShared=4 
%Mem=4GB  
%Chk=H2O_H2O_4870.chk 

#p CCSD(T)/cc-pVTZ 

H2O_H2O_4870

0 1
O             -0.000000         -0.009833          0.000000
H             -0.799571         -0.580965          0.000000
H              0.799571         -0.580965          0.000000
O             -0.009498          6.748890          0.000000
H             -0.354225          7.669036          0.000000
H             -0.768113          6.124383          0.000000

