%NProcShared=4 
%Mem=4GB  
%Chk=H2O_H2O_223.chk 

#p CCSD(T)/cc-pVTZ 

H2O_H2O_223

0 1
O             -0.000000         -0.009833          0.000000
H             -0.799571         -0.580965          0.000000
H              0.799571         -0.580965          0.000000
O             -0.009812          1.800909          0.000000
H             -0.527427          2.636122          0.000000
H             -0.632016          1.040404          0.000000

