%NProcShared=4 
%Mem=4GB  
%Chk=H2O_H2O_4228.chk 

#p CCSD(T)/cc-pVTZ 

H2O_H2O_4228

0 1
O             -0.000000         -0.009833          0.000000
H             -0.799571         -0.580965          0.000000
H              0.799571         -0.580965          0.000000
O             -0.001918          6.091193          0.000000
H              0.670867          6.807340          0.000000
H             -0.897548          6.495363          0.000000

