%NProcShared=4 
%Mem=4GB  
%Chk=H2O_H2O_2558.chk 

#p CCSD(T)/cc-pVTZ 

H2O_H2O_2558

0 1
O             -0.000000         -0.009833          0.000000
H             -0.799571         -0.580965          0.000000
H              0.799571         -0.580965          0.000000
O             -0.004917          4.308413          0.000000
H              0.401967          5.202814          0.000000
H             -0.982932          4.403242          0.000000

