%NProcShared=4 
%Mem=4GB  
%Chk=H2O_H2O_396.chk 

#p CCSD(T)/cc-pVTZ 

H2O_H2O_396

0 1
O             -0.000000         -0.009833          0.000000
H             -0.799571         -0.580965          0.000000
H              0.799571         -0.580965          0.000000
O             -0.009644          1.988327          0.000000
H             -0.413813          2.883958          0.000000
H             -0.725791          1.315542          0.000000

