%NProcShared=4 
%Mem=4GB  
%Chk=H2O_H2O_2477.chk 

#p CCSD(T)/cc-pVTZ 

H2O_H2O_2477

0 1
O             -0.000000         -0.009833          0.000000
H             -0.799571         -0.580965          0.000000
H              0.799571         -0.580965          0.000000
O             -0.001283          4.229871          0.000000
H              0.716900          4.900482          0.000000
H             -0.868562          4.691752          0.000000

