%NProcShared=4 
%Mem=4GB  
%Chk=H2O_H2O_99.chk 

#p CCSD(T)/cc-pVTZ 

H2O_H2O_99

0 1
O             -0.000000         -0.009833          0.000000
H             -0.799571         -0.580965          0.000000
H              0.799571         -0.580965          0.000000
O             -0.009833          1.667307          0.000000
H             -0.580965          2.466878          0.000000
H             -0.580965          0.867736          0.000000

