%NProcShared=4 
%Mem=4GB  
%Chk=H2O_H2O_2454.chk 

#p CCSD(T)/cc-pVTZ 

H2O_H2O_2454

0 1
O             -0.000000         -0.009833          0.000000
H             -0.799571         -0.580965          0.000000
H              0.799571         -0.580965          0.000000
O             -0.002545          4.203028          0.000000
H              0.621962          4.961643          0.000000
H             -0.922692          4.547755          0.000000

