%NProcShared=4 
%Mem=4GB  
%Chk=H2O_H2O_3618.chk 

#p CCSD(T)/cc-pVTZ 

H2O_H2O_3618

0 1
O             -0.000000         -0.009833          0.000000
H             -0.799571         -0.580965          0.000000
H              0.799571         -0.580965          0.000000
O             -0.009085          5.420517          0.000000
H             -0.230759          6.377787          0.000000
H             -0.842725          4.900372          0.000000

