%NProcShared=4 
%Mem=4GB  
%Chk=H2O_H2O_861.chk 

#p CCSD(T)/cc-pVTZ 

H2O_H2O_861

0 1
O             -0.000000         -0.009833          0.000000
H             -0.799571         -0.580965          0.000000
H              0.799571         -0.580965          0.000000
O             -0.006483          2.499047          0.000000
H              0.218093          3.455640          0.000000
H             -0.984207          2.401252          0.000000

