%NProcShared=4 
%Mem=4GB  
%Chk=H2O_H2O_3862.chk 

#p CCSD(T)/cc-pVTZ 

H2O_H2O_3862

0 1
O             -0.000000         -0.009833          0.000000
H             -0.799571         -0.580965          0.000000
H              0.799571         -0.580965          0.000000
O             -0.006953          5.689625          0.000000
H              0.154578          6.658858          0.000000
H             -0.976187          5.528094          0.000000

