%NProcShared=4 
%Mem=4GB  
%Chk=H2O_H2O_119.chk 

#p CCSD(T)/cc-pVTZ 

H2O_H2O_119

0 1
O             -0.000000         -0.009833          0.000000
H             -0.799571         -0.580965          0.000000
H              0.799571         -0.580965          0.000000
O             -0.009311          1.697060          0.000000
H             -0.293120          2.637782          0.000000
H             -0.807147          1.123506          0.000000

