%NProcShared=4 
%Mem=4GB  
%Chk=H2O_H2O_2521.chk 

#p CCSD(T)/cc-pVTZ 

H2O_H2O_2521

0 1
O             -0.000000         -0.009833          0.000000
H             -0.799571         -0.580965          0.000000
H              0.799571         -0.580965          0.000000
O             -0.009644          4.248632          0.000000
H             -0.413813          5.144262          0.000000
H             -0.725791          3.575846          0.000000

