%NProcShared=4 
%Mem=4GB  
%Chk=H2O_H2O_3310.chk 

#p CCSD(T)/cc-pVTZ 

H2O_H2O_3310

0 1
O             -0.000000         -0.009833          0.000000
H             -0.799571         -0.580965          0.000000
H              0.799571         -0.580965          0.000000
O             -0.005986          5.105453          0.000000
H              0.280674          6.045310          0.000000
H             -0.988012          5.071814          0.000000

