%NProcShared=4 
%Mem=4GB  
%Chk=H2O_H2O_2405.chk 

#p CCSD(T)/cc-pVTZ 

H2O_H2O_2405

0 1
O             -0.000000         -0.009833          0.000000
H             -0.799571         -0.580965          0.000000
H              0.799571         -0.580965          0.000000
O             -0.003161          4.149658          0.000000
H              0.570393          4.947493          0.000000
H             -0.943883          4.433466          0.000000

