%NProcShared=4 
%Mem=4GB  
%Chk=H2O_H2O_937.chk 

#p CCSD(T)/cc-pVTZ 

H2O_H2O_937

0 1
O             -0.000000         -0.009833          0.000000
H             -0.799571         -0.580965          0.000000
H              0.799571         -0.580965          0.000000
O             -0.006953          2.578382          0.000000
H              0.154578          3.547616          0.000000
H             -0.976187          2.416851          0.000000

