%NProcShared=4 
%Mem=4GB  
%Chk=H2O_H2O_2759.chk 

#p CCSD(T)/cc-pVTZ 

H2O_H2O_2759

0 1
O             -0.000000         -0.009833          0.000000
H             -0.799571         -0.580965          0.000000
H              0.799571         -0.580965          0.000000
O             -0.005463          4.520808          0.000000
H              0.342052          5.439905          0.000000
H             -0.987586          4.551469          0.000000

