%NProcShared=4 
%Mem=4GB  
%Chk=H2O_H2O_4042.chk 

#p CCSD(T)/cc-pVTZ 

H2O_H2O_4042

0 1
O             -0.000000         -0.009833          0.000000
H             -0.799571         -0.580965          0.000000
H              0.799571         -0.580965          0.000000
O             -0.008819          5.873164          0.000000
H             -0.167410          6.842883          0.000000
H             -0.874693          5.408655          0.000000

