%NProcShared=4 
%Mem=4GB  
%Chk=H2O_H2O_785.chk 

#p CCSD(T)/cc-pVTZ 

H2O_H2O_785

0 1
O             -0.000000         -0.009833          0.000000
H             -0.799571         -0.580965          0.000000
H              0.799571         -0.580965          0.000000
O             -0.005986          2.419679          0.000000
H              0.280674          3.359537          0.000000
H             -0.988012          2.386040          0.000000

