%NProcShared=4 
%Mem=4GB  
%Chk=H2O_H2O_4608.chk 

#p CCSD(T)/cc-pVTZ 

H2O_H2O_4608

0 1
O             -0.000000         -0.009833          0.000000
H             -0.799571         -0.580965          0.000000
H              0.799571         -0.580965          0.000000
O             -0.004917          6.488942          0.000000
H              0.401967          7.383343          0.000000
H             -0.982932          6.583771          0.000000

