%NProcShared=4 
%Mem=4GB  
%Chk=H2O_H2O_2166.chk 

#p CCSD(T)/cc-pVTZ 

H2O_H2O_2166

0 1
O             -0.000000         -0.009833          0.000000
H             -0.799571         -0.580965          0.000000
H              0.799571         -0.580965          0.000000
O             -0.008516          3.879345          0.000000
H             -0.103345          4.857360          0.000000
H             -0.902916          3.472461          0.000000

