%NProcShared=4 
%Mem=4GB  
%Chk=H2O_H2O_2907.chk 

#p CCSD(T)/cc-pVTZ 

H2O_H2O_2907

0 1
O             -0.000000         -0.009833          0.000000
H             -0.799571         -0.580965          0.000000
H              0.799571         -0.580965          0.000000
O             -0.004349          4.681002          0.000000
H              0.460159          5.546876          0.000000
H             -0.974068          4.839593          0.000000

