%NProcShared=4 
%Mem=4GB  
%Chk=H2O_H2O_4347.chk 

#p CCSD(T)/cc-pVTZ 

H2O_H2O_4347

0 1
O             -0.000000         -0.009833          0.000000
H             -0.799571         -0.580965          0.000000
H              0.799571         -0.580965          0.000000
O             -0.009749          6.189200          0.000000
H             -0.471630          7.056479          0.000000
H             -0.680360          5.471017          0.000000

