%NProcShared=4 
%Mem=4GB  
%Chk=H2O_H2O_2853.chk 

#p CCSD(T)/cc-pVTZ 

H2O_H2O_2853

0 1
O             -0.000000         -0.009833          0.000000
H             -0.799571         -0.580965          0.000000
H              0.799571         -0.580965          0.000000
O             -0.001918          4.628643          0.000000
H              0.670867          5.344790          0.000000
H             -0.897548          5.032813          0.000000

