%NProcShared=4 
%Mem=4GB  
%Chk=H2O_H2O_3475.chk 

#p CCSD(T)/cc-pVTZ 

H2O_H2O_3475

0 1
O             -0.000000         -0.009833          0.000000
H             -0.799571         -0.580965          0.000000
H              0.799571         -0.580965          0.000000
O             -0.000000          5.293628          0.000000
H              0.799571          5.864760          0.000000
H             -0.799571          5.864759          0.000000

