%NProcShared=4 
%Mem=4GB  
%Chk=H2O_H2O_519.chk 

#p CCSD(T)/cc-pVTZ 

H2O_H2O_519

0 1
O             -0.000000         -0.009833          0.000000
H             -0.799571         -0.580965          0.000000
H              0.799571         -0.580965          0.000000
O             -0.009311          2.122529          0.000000
H             -0.293120          3.063251          0.000000
H             -0.807147          1.548975          0.000000

