%NProcShared=4 
%Mem=4GB  
%Chk=H2O_H2O_1170.chk 

#p CCSD(T)/cc-pVTZ 

H2O_H2O_1170

0 1
O             -0.000000         -0.009833          0.000000
H             -0.799571         -0.580965          0.000000
H              0.799571         -0.580965          0.000000
O             -0.009498          2.813300          0.000000
H             -0.354225          3.733447          0.000000
H             -0.768113          2.188793          0.000000

