%NProcShared=4 
%Mem=4GB  
%Chk=H2O_H2O_1882.chk 

#p CCSD(T)/cc-pVTZ 

H2O_H2O_1882

0 1
O             -0.000000         -0.009833          0.000000
H             -0.799571         -0.580965          0.000000
H              0.799571         -0.580965          0.000000
O             -0.004349          3.590737          0.000000
H              0.460159          4.456611          0.000000
H             -0.974068          3.749328          0.000000

