%NProcShared=4 
%Mem=4GB  
%Chk=H2O_H2O_4134.chk 

#p CCSD(T)/cc-pVTZ 

H2O_H2O_4134

0 1
O             -0.000000         -0.009833          0.000000
H             -0.799571         -0.580965          0.000000
H              0.799571         -0.580965          0.000000
O             -0.005463          5.983358          0.000000
H              0.342052          6.902455          0.000000
H             -0.987586          6.014019          0.000000

