%NProcShared=4 
%Mem=4GB  
%Chk=H2O_H2O_2021.chk 

#p CCSD(T)/cc-pVTZ 

H2O_H2O_2021

0 1
O             -0.000000         -0.009833          0.000000
H             -0.799571         -0.580965          0.000000
H              0.799571         -0.580965          0.000000
O             -0.009644          3.716796          0.000000
H             -0.413813          4.612426          0.000000
H             -0.725791          3.044010          0.000000

