%NProcShared=4 
%Mem=4GB  
%Chk=H2O_H2O_4734.chk 

#p CCSD(T)/cc-pVTZ 

H2O_H2O_4734

0 1
O             -0.000000         -0.009833          0.000000
H             -0.799571         -0.580965          0.000000
H              0.799571         -0.580965          0.000000
O             -0.005463          6.621561          0.000000
H              0.342052          7.540658          0.000000
H             -0.987586          6.652222          0.000000

