%NProcShared=4 
%Mem=4GB  
%Chk=H2O_H2O_339.chk 

#p CCSD(T)/cc-pVTZ 

H2O_H2O_339

0 1
O             -0.000000         -0.009833          0.000000
H             -0.799571         -0.580965          0.000000
H              0.799571         -0.580965          0.000000
O             -0.007801          1.939211          0.000000
H              0.025838          2.921237          0.000000
H             -0.947659          1.652552          0.000000

