%NProcShared=4 
%Mem=4GB  
%Chk=H2O_H2O_3073.chk 

#p CCSD(T)/cc-pVTZ 

H2O_H2O_3073

0 1
O             -0.000000         -0.009833          0.000000
H             -0.799571         -0.580965          0.000000
H              0.799571         -0.580965          0.000000
O             -0.009812          4.832377          0.000000
H             -0.527427          5.667590          0.000000
H             -0.632016          4.071871          0.000000

