%NProcShared=4 
%Mem=4GB  
%Chk=H2O_H2O_2668.chk 

#p CCSD(T)/cc-pVTZ 

H2O_H2O_2668

0 1
O             -0.000000         -0.009833          0.000000
H             -0.799571         -0.580965          0.000000
H              0.799571         -0.580965          0.000000
O             -0.009085          4.410028          0.000000
H             -0.230759          5.367298          0.000000
H             -0.842725          3.889883          0.000000

