%NProcShared=4 
%Mem=4GB  
%Chk=H2O_H2O_4071.chk 

#p CCSD(T)/cc-pVTZ 

H2O_H2O_4071

0 1
O             -0.000000         -0.009833          0.000000
H             -0.799571         -0.580965          0.000000
H              0.799571         -0.580965          0.000000
O             -0.009644          5.897325          0.000000
H             -0.413813          6.792955          0.000000
H             -0.725791          5.224539          0.000000

