%NProcShared=4 
%Mem=4GB  
%Chk=H2O_H2O_4343.chk 

#p CCSD(T)/cc-pVTZ 

H2O_H2O_4343

0 1
O             -0.000000         -0.009833          0.000000
H             -0.799571         -0.580965          0.000000
H              0.799571         -0.580965          0.000000
O             -0.009085          6.191679          0.000000
H             -0.230759          7.148950          0.000000
H             -0.842725          5.671535          0.000000

