%NProcShared=4 
%Mem=4GB  
%Chk=H2O_H2O_1642.chk 

#p CCSD(T)/cc-pVTZ 

H2O_H2O_1642

0 1
O             -0.000000         -0.009833          0.000000
H             -0.799571         -0.580965          0.000000
H              0.799571         -0.580965          0.000000
O             -0.008819          3.320349          0.000000
H             -0.167410          4.290068          0.000000
H             -0.874693          2.855840          0.000000

