%NProcShared=4 
%Mem=4GB  
%Chk=H2O_H2O_1048.chk 

#p CCSD(T)/cc-pVTZ 

H2O_H2O_1048

0 1
O             -0.000000         -0.009833          0.000000
H             -0.799571         -0.580965          0.000000
H              0.799571         -0.580965          0.000000
O             -0.009812          2.678439          0.000000
H             -0.527427          3.513652          0.000000
H             -0.632016          1.917934          0.000000

