%NProcShared=4 
%Mem=4GB  
%Chk=H2O_H2O_62.chk 

#p CCSD(T)/cc-pVTZ 

H2O_H2O_62

0 1
O             -0.000000         -0.009833          0.000000
H             -0.799571         -0.580965          0.000000
H              0.799571         -0.580965          0.000000
O             -0.006953          1.647668          0.000000
H              0.154578          2.616902          0.000000
H             -0.976187          1.486137          0.000000

