%NProcShared=4 
%Mem=4GB  
%Chk=H2O_H2O_20.chk 

#p CCSD(T)/cc-pVTZ 

H2O_H2O_20

0 1
O             -0.000000         -0.009833          0.000000
H             -0.799571         -0.580965          0.000000
H              0.799571         -0.580965          0.000000
O             -0.009498          1.590077          0.000000
H             -0.354225          2.510223          0.000000
H             -0.768113          0.965570          0.000000

