%NProcShared=4 
%Mem=4GB  
%Chk=H2O_H2O_3354.chk 

#p CCSD(T)/cc-pVTZ 

H2O_H2O_3354

0 1
O             -0.000000         -0.009833          0.000000
H             -0.799571         -0.580965          0.000000
H              0.799571         -0.580965          0.000000
O             -0.002545          5.160334          0.000000
H              0.621962          5.918949          0.000000
H             -0.922692          5.505060          0.000000

