%NProcShared=4 
%Mem=4GB  
%Chk=H2O_H2O_4148.chk 

#p CCSD(T)/cc-pVTZ 

H2O_H2O_4148

0 1
O             -0.000000         -0.009833          0.000000
H             -0.799571         -0.580965          0.000000
H              0.799571         -0.580965          0.000000
O             -0.009812          5.975825          0.000000
H             -0.527427          6.811038          0.000000
H             -0.632016          5.215319          0.000000

