%NProcShared=4 
%Mem=4GB  
%Chk=H2O_H2O_1944.chk 

#p CCSD(T)/cc-pVTZ 

H2O_H2O_1944

0 1
O             -0.000000         -0.009833          0.000000
H             -0.799571         -0.580965          0.000000
H              0.799571         -0.580965          0.000000
O             -0.009311          3.638262          0.000000
H             -0.293120          4.578985          0.000000
H             -0.807147          3.064708          0.000000

