%NProcShared=4 
%Mem=4GB  
%Chk=H2O_H2O_3258.chk 

#p CCSD(T)/cc-pVTZ 

H2O_H2O_3258

0 1
O             -0.000000         -0.009833          0.000000
H             -0.799571         -0.580965          0.000000
H              0.799571         -0.580965          0.000000
O             -0.004917          5.052984          0.000000
H              0.401967          5.947384          0.000000
H             -0.982932          5.147813          0.000000

