%NProcShared=4 
%Mem=4GB  
%Chk=H2O_H2O_2306.chk 

#p CCSD(T)/cc-pVTZ 

H2O_H2O_2306

0 1
O             -0.000000         -0.009833          0.000000
H             -0.799571         -0.580965          0.000000
H              0.799571         -0.580965          0.000000
O             -0.003763          4.043064          0.000000
H              0.516382          4.876704          0.000000
H             -0.961033          4.264738          0.000000

