%NProcShared=4 
%Mem=4GB  
%Chk=H2O_H2O_1032.chk 

#p CCSD(T)/cc-pVTZ 

H2O_H2O_1032

0 1
O             -0.000000         -0.009833          0.000000
H             -0.799571         -0.580965          0.000000
H              0.799571         -0.580965          0.000000
O             -0.004349          2.686615          0.000000
H              0.460159          3.552489          0.000000
H             -0.974068          2.845206          0.000000

