%NProcShared=4 
%Mem=4GB  
%Chk=H2O_H2O_2771.chk 

#p CCSD(T)/cc-pVTZ 

H2O_H2O_2771

0 1
O             -0.000000         -0.009833          0.000000
H             -0.799571         -0.580965          0.000000
H              0.799571         -0.580965          0.000000
O             -0.009644          4.514550          0.000000
H             -0.413813          5.410180          0.000000
H             -0.725791          3.841765          0.000000

