%NProcShared=4 
%Mem=4GB  
%Chk=H2O_H2O_131.chk 

#p CCSD(T)/cc-pVTZ 

H2O_H2O_131

0 1
O             -0.000000         -0.009833          0.000000
H             -0.799571         -0.580965          0.000000
H              0.799571         -0.580965          0.000000
O             -0.003763          1.729575          0.000000
H              0.516382          2.563215          0.000000
H             -0.961033          1.951250          0.000000

