%NProcShared=4 
%Mem=4GB  
%Chk=H2O_H2O_3547.chk 

#p CCSD(T)/cc-pVTZ 

H2O_H2O_3547

0 1
O             -0.000000         -0.009833          0.000000
H             -0.799571         -0.580965          0.000000
H              0.799571         -0.580965          0.000000
O             -0.009749          5.338262          0.000000
H             -0.471630          6.205540          0.000000
H             -0.680360          4.620079          0.000000

