%NProcShared=4 
%Mem=4GB  
%Chk=H2O_H2O_1313.chk 

#p CCSD(T)/cc-pVTZ 

H2O_H2O_1313

0 1
O             -0.000000         -0.009833          0.000000
H             -0.799571         -0.580965          0.000000
H              0.799571         -0.580965          0.000000
O             -0.007393          2.976790          0.000000
H              0.090401          3.954513          0.000000
H             -0.963987          2.752214          0.000000

