%NProcShared=4 
%Mem=4GB  
%Chk=H2O_H2O_4964.chk 

#p CCSD(T)/cc-pVTZ 

H2O_H2O_4964

0 1
O             -0.000000         -0.009833          0.000000
H             -0.799571         -0.580965          0.000000
H              0.799571         -0.580965          0.000000
O             -0.007801          6.858698          0.000000
H              0.025838          7.840724          0.000000
H             -0.947659          6.572039          0.000000

