%NProcShared=4 
%Mem=4GB  
%Chk=H2O_H2O_3828.chk 

#p CCSD(T)/cc-pVTZ 

H2O_H2O_3828

0 1
O             -0.000000         -0.009833          0.000000
H             -0.799571         -0.580965          0.000000
H              0.799571         -0.580965          0.000000
O             -0.001918          5.665724          0.000000
H              0.670867          6.381871          0.000000
H             -0.897548          6.069894          0.000000

