%NProcShared=4 
%Mem=4GB  
%Chk=H2O_H2O_2121.chk 

#p CCSD(T)/cc-pVTZ 

H2O_H2O_2121

0 1
O             -0.000000         -0.009833          0.000000
H             -0.799571         -0.580965          0.000000
H              0.799571         -0.580965          0.000000
O             -0.009644          3.823163          0.000000
H             -0.413813          4.718793          0.000000
H             -0.725791          3.150377          0.000000

