%NProcShared=4 
%Mem=4GB  
%Chk=H2O_H2O_195.chk 

#p CCSD(T)/cc-pVTZ 

H2O_H2O_195

0 1
O             -0.000000         -0.009833          0.000000
H             -0.799571         -0.580965          0.000000
H              0.799571         -0.580965          0.000000
O             -0.009498          1.776219          0.000000
H             -0.354225          2.696366          0.000000
H             -0.768113          1.151712          0.000000

