%NProcShared=4 
%Mem=4GB  
%Chk=H2O_H2O_1167.chk 

#p CCSD(T)/cc-pVTZ 

H2O_H2O_1167

0 1
O             -0.000000         -0.009833          0.000000
H             -0.799571         -0.580965          0.000000
H              0.799571         -0.580965          0.000000
O             -0.008819          2.815104          0.000000
H             -0.167410          3.784823          0.000000
H             -0.874693          2.350596          0.000000

