%NProcShared=4 
%Mem=4GB  
%Chk=H2O_H2O_4245.chk 

#p CCSD(T)/cc-pVTZ 

H2O_H2O_4245

0 1
O             -0.000000         -0.009833          0.000000
H             -0.799571         -0.580965          0.000000
H              0.799571         -0.580965          0.000000
O             -0.009498          6.084094          0.000000
H             -0.354225          7.004241          0.000000
H             -0.768113          5.459587          0.000000

