%NProcShared=4 
%Mem=4GB  
%Chk=H2O_H2O_682.chk 

#p CCSD(T)/cc-pVTZ 

H2O_H2O_682

0 1
O             -0.000000         -0.009833          0.000000
H             -0.799571         -0.580965          0.000000
H              0.799571         -0.580965          0.000000
O             -0.004349          2.314330          0.000000
H              0.460159          3.180204          0.000000
H             -0.974068          2.472921          0.000000

