%NProcShared=4 
%Mem=4GB  
%Chk=H2O_H2O_284.chk 

#p CCSD(T)/cc-pVTZ 

H2O_H2O_284

0 1
O             -0.000000         -0.009833          0.000000
H             -0.799571         -0.580965          0.000000
H              0.799571         -0.580965          0.000000
O             -0.005463          1.888218          0.000000
H              0.342052          2.807315          0.000000
H             -0.987586          1.918878          0.000000

