%NProcShared=4 
%Mem=4GB  
%Chk=H2O_H2O_1855.chk 

#p CCSD(T)/cc-pVTZ 

H2O_H2O_1855

0 1
O             -0.000000         -0.009833          0.000000
H             -0.799571         -0.580965          0.000000
H              0.799571         -0.580965          0.000000
O             -0.003161          3.564638          0.000000
H              0.570393          4.362474          0.000000
H             -0.943883          3.848446          0.000000

