%NProcShared=4 
%Mem=4GB  
%Chk=H2O_H2O_2699.chk 

#p CCSD(T)/cc-pVTZ 

H2O_H2O_2699

0 1
O             -0.000000         -0.009833          0.000000
H             -0.799571         -0.580965          0.000000
H              0.799571         -0.580965          0.000000
O             -0.009833          4.432856          0.000000
H             -0.580965          5.232428          0.000000
H             -0.580965          3.633285          0.000000

