%NProcShared=4 
%Mem=4GB  
%Chk=H2O_H2O_4616.chk 

#p CCSD(T)/cc-pVTZ 

H2O_H2O_4616

0 1
O             -0.000000         -0.009833          0.000000
H             -0.799571         -0.580965          0.000000
H              0.799571         -0.580965          0.000000
O             -0.008516          6.485343          0.000000
H             -0.103345          7.463358          0.000000
H             -0.902916          6.078460          0.000000

