%NProcShared=4 
%Mem=4GB  
%Chk=H2O_H2O_4326.chk 

#p CCSD(T)/cc-pVTZ 

H2O_H2O_4326

0 1
O             -0.000000         -0.009833          0.000000
H             -0.799571         -0.580965          0.000000
H              0.799571         -0.580965          0.000000
O             -0.000643          6.197728          0.000000
H              0.759863          6.819932          0.000000
H             -0.835856          6.715343          0.000000

