%NProcShared=4 
%Mem=4GB  
%Chk=H2O_H2O_3205.chk 

#p CCSD(T)/cc-pVTZ 

H2O_H2O_3205

0 1
O             -0.000000         -0.009833          0.000000
H             -0.799571         -0.580965          0.000000
H              0.799571         -0.580965          0.000000
O             -0.003161          5.000596          0.000000
H              0.570393          5.798431          0.000000
H             -0.943883          5.284404          0.000000

