%NProcShared=4 
%Mem=4GB  
%Chk=H2O_H2O_4823.chk 

#p CCSD(T)/cc-pVTZ 

H2O_H2O_4823

0 1
O             -0.000000         -0.009833          0.000000
H             -0.799571         -0.580965          0.000000
H              0.799571         -0.580965          0.000000
O             -0.009812          6.693804          0.000000
H             -0.527427          7.529017          0.000000
H             -0.632016          5.933298          0.000000

