%NProcShared=4 
%Mem=4GB  
%Chk=H2O_H2O_689.chk 

#p CCSD(T)/cc-pVTZ 

H2O_H2O_689

0 1
O             -0.000000         -0.009833          0.000000
H             -0.799571         -0.580965          0.000000
H              0.799571         -0.580965          0.000000
O             -0.007801          2.311497          0.000000
H              0.025838          3.293523          0.000000
H             -0.947659          2.024837          0.000000

