%NProcShared=4 
%Mem=4GB  
%Chk=H2O_H2O_2899.chk 

#p CCSD(T)/cc-pVTZ 

H2O_H2O_2899

0 1
O             -0.000000         -0.009833          0.000000
H             -0.799571         -0.580965          0.000000
H              0.799571         -0.580965          0.000000
O             -0.009833          4.645591          0.000000
H             -0.580965          5.445162          0.000000
H             -0.580965          3.846019          0.000000

