%NProcShared=4 
%Mem=4GB  
%Chk=H2O_H2O_4816.chk 

#p CCSD(T)/cc-pVTZ 

H2O_H2O_4816

0 1
O             -0.000000         -0.009833          0.000000
H             -0.799571         -0.580965          0.000000
H              0.799571         -0.580965          0.000000
O             -0.008516          6.698078          0.000000
H             -0.103345          7.676093          0.000000
H             -0.902916          6.291194          0.000000

