%NProcShared=4 
%Mem=4GB  
%Chk=H2O_H2O_3034.chk 

#p CCSD(T)/cc-pVTZ 

H2O_H2O_3034

0 1
O             -0.000000         -0.009833          0.000000
H             -0.799571         -0.580965          0.000000
H              0.799571         -0.580965          0.000000
O             -0.005463          4.813318          0.000000
H              0.342052          5.732415          0.000000
H             -0.987586          4.843979          0.000000

