%NProcShared=4 
%Mem=4GB  
%Chk=H2O_H2O_1474.chk 

#p CCSD(T)/cc-pVTZ 

H2O_H2O_1474

0 1
O             -0.000000         -0.009833          0.000000
H             -0.799571         -0.580965          0.000000
H              0.799571         -0.580965          0.000000
O             -0.009833          3.129857          0.000000
H             -0.580965          3.929428          0.000000
H             -0.580965          2.330286          0.000000

