%NProcShared=4 
%Mem=4GB  
%Chk=H2O_H2O_4426.chk 

#p CCSD(T)/cc-pVTZ 

H2O_H2O_4426

0 1
O             -0.000000         -0.009833          0.000000
H             -0.799571         -0.580965          0.000000
H              0.799571         -0.580965          0.000000
O             -0.000643          6.304096          0.000000
H              0.759863          6.926299          0.000000
H             -0.835856          6.821710          0.000000

