%NProcShared=4 
%Mem=4GB  
%Chk=H2O_H2O_4545.chk 

#p CCSD(T)/cc-pVTZ 

H2O_H2O_4545

0 1
O             -0.000000         -0.009833          0.000000
H             -0.799571         -0.580965          0.000000
H              0.799571         -0.580965          0.000000
O             -0.009498          6.403196          0.000000
H             -0.354225          7.323342          0.000000
H             -0.768113          5.778689          0.000000

