%NProcShared=4 
%Mem=4GB  
%Chk=H2O_H2O_403.chk 

#p CCSD(T)/cc-pVTZ 

H2O_H2O_403

0 1
O             -0.000000         -0.009833          0.000000
H             -0.799571         -0.580965          0.000000
H              0.799571         -0.580965          0.000000
O             -0.001918          2.022645          0.000000
H              0.670867          2.738791          0.000000
H             -0.897548          2.426814          0.000000

