%NProcShared=4 
%Mem=4GB  
%Chk=H2O_H2O_149.chk 

#p CCSD(T)/cc-pVTZ 

H2O_H2O_149

0 1
O             -0.000000         -0.009833          0.000000
H             -0.799571         -0.580965          0.000000
H              0.799571         -0.580965          0.000000
O             -0.009833          1.720491          0.000000
H             -0.580965          2.520062          0.000000
H             -0.580965          0.920919          0.000000

