%NProcShared=4 
%Mem=4GB  
%Chk=H2O_H2O_3807.chk 

#p CCSD(T)/cc-pVTZ 

H2O_H2O_3807

0 1
O             -0.000000         -0.009833          0.000000
H             -0.799571         -0.580965          0.000000
H              0.799571         -0.580965          0.000000
O             -0.004349          5.638307          0.000000
H              0.460159          6.504182          0.000000
H             -0.974068          5.796899          0.000000

