%NProcShared=4 
%Mem=4GB  
%Chk=H2O_H2O_183.chk 

#p CCSD(T)/cc-pVTZ 

H2O_H2O_183

0 1
O             -0.000000         -0.009833          0.000000
H             -0.799571         -0.580965          0.000000
H              0.799571         -0.580965          0.000000
O             -0.004917          1.782190          0.000000
H              0.401967          2.676591          0.000000
H             -0.982932          1.877019          0.000000

