%NProcShared=4 
%Mem=4GB  
%Chk=H2O_H2O_3939.chk 

#p CCSD(T)/cc-pVTZ 

H2O_H2O_3939

0 1
O             -0.000000         -0.009833          0.000000
H             -0.799571         -0.580965          0.000000
H              0.799571         -0.580965          0.000000
O             -0.007801          5.768433          0.000000
H              0.025838          6.750459          0.000000
H             -0.947659          5.481774          0.000000

