%NProcShared=4 
%Mem=4GB  
%Chk=H2O_H2O_4205.chk 

#p CCSD(T)/cc-pVTZ 

H2O_H2O_4205

0 1
O             -0.000000         -0.009833          0.000000
H             -0.799571         -0.580965          0.000000
H              0.799571         -0.580965          0.000000
O             -0.003161          6.064269          0.000000
H              0.570393          6.862105          0.000000
H             -0.943883          6.348077          0.000000

