%NProcShared=4 
%Mem=4GB  
%Chk=H2O_H2O_3447.chk 

#p CCSD(T)/cc-pVTZ 

H2O_H2O_3447

0 1
O             -0.000000         -0.009833          0.000000
H             -0.799571         -0.580965          0.000000
H              0.799571         -0.580965          0.000000
O             -0.009749          5.231895          0.000000
H             -0.471630          6.099173          0.000000
H             -0.680360          4.513711          0.000000

