%NProcShared=4 
%Mem=4GB  
%Chk=H2O_H2O_381.chk 

#p CCSD(T)/cc-pVTZ 

H2O_H2O_381

0 1
O             -0.000000         -0.009833          0.000000
H             -0.799571         -0.580965          0.000000
H              0.799571         -0.580965          0.000000
O             -0.003763          1.995494          0.000000
H              0.516382          2.829133          0.000000
H             -0.961033          2.217168          0.000000

