%NProcShared=4 
%Mem=4GB  
%Chk=H2O_H2O_274.chk 

#p CCSD(T)/cc-pVTZ 

H2O_H2O_274

0 1
O             -0.000000         -0.009833          0.000000
H             -0.799571         -0.580965          0.000000
H              0.799571         -0.580965          0.000000
O             -0.009833          1.853450          0.000000
H             -0.580965          2.653021          0.000000
H             -0.580965          1.053878          0.000000

