%NProcShared=4 
%Mem=4GB  
%Chk=H2O_H2O_4296.chk 

#p CCSD(T)/cc-pVTZ 

H2O_H2O_4296

0 1
O             -0.000000         -0.009833          0.000000
H             -0.799571         -0.580965          0.000000
H              0.799571         -0.580965          0.000000
O             -0.009644          6.136651          0.000000
H             -0.413813          7.032282          0.000000
H             -0.725791          5.463866          0.000000

