%NProcShared=4 
%Mem=4GB  
%Chk=H2O_H2O_4659.chk 

#p CCSD(T)/cc-pVTZ 

H2O_H2O_4659

0 1
O             -0.000000         -0.009833          0.000000
H             -0.799571         -0.580965          0.000000
H              0.799571         -0.580965          0.000000
O             -0.005463          6.541786          0.000000
H              0.342052          7.460883          0.000000
H             -0.987586          6.572447          0.000000

