%NProcShared=4 
%Mem=4GB  
%Chk=H2O_H2O_1773.chk 

#p CCSD(T)/cc-pVTZ 

H2O_H2O_1773

0 1
O             -0.000000         -0.009833          0.000000
H             -0.799571         -0.580965          0.000000
H              0.799571         -0.580965          0.000000
O             -0.009812          3.449602          0.000000
H             -0.527427          4.284815          0.000000
H             -0.632016          2.689097          0.000000

