%NProcShared=4 
%Mem=4GB  
%Chk=H2O_H2O_4945.chk 

#p CCSD(T)/cc-pVTZ 

H2O_H2O_4945

0 1
O             -0.000000         -0.009833          0.000000
H             -0.799571         -0.580965          0.000000
H              0.799571         -0.580965          0.000000
O             -0.009498          6.828665          0.000000
H             -0.354225          7.748811          0.000000
H             -0.768113          6.204158          0.000000

