%NProcShared=4 
%Mem=4GB  
%Chk=H2O_H2O_2568.chk 

#p CCSD(T)/cc-pVTZ 

H2O_H2O_2568

0 1
O             -0.000000         -0.009833          0.000000
H             -0.799571         -0.580965          0.000000
H              0.799571         -0.580965          0.000000
O             -0.009085          4.303660          0.000000
H             -0.230759          5.260931          0.000000
H             -0.842725          3.783516          0.000000

