%NProcShared=4 
%Mem=4GB  
%Chk=H2O_H2O_1990.chk 

#p CCSD(T)/cc-pVTZ 

H2O_H2O_1990

0 1
O             -0.000000         -0.009833          0.000000
H             -0.799571         -0.580965          0.000000
H              0.799571         -0.580965          0.000000
O             -0.008176          3.693748          0.000000
H             -0.038837          4.675872          0.000000
H             -0.927273          3.346233          0.000000

