%NProcShared=4 
%Mem=4GB  
%Chk=H2O_H2O_3888.chk 

#p CCSD(T)/cc-pVTZ 

H2O_H2O_3888

0 1
O             -0.000000         -0.009833          0.000000
H             -0.799571         -0.580965          0.000000
H              0.799571         -0.580965          0.000000
O             -0.007393          5.715747          0.000000
H              0.090401          6.693470          0.000000
H             -0.963987          5.491171          0.000000

