%NProcShared=4 
%Mem=4GB  
%Chk=H2O_H2O_1366.chk 

#p CCSD(T)/cc-pVTZ 

H2O_H2O_1366

0 1
O             -0.000000         -0.009833          0.000000
H             -0.799571         -0.580965          0.000000
H              0.799571         -0.580965          0.000000
O             -0.008516          3.028406          0.000000
H             -0.103345          4.006422          0.000000
H             -0.902916          2.621523          0.000000

