%NProcShared=4 
%Mem=4GB  
%Chk=H2O_H2O_2020.chk 

#p CCSD(T)/cc-pVTZ 

H2O_H2O_2020

0 1
O             -0.000000         -0.009833          0.000000
H             -0.799571         -0.580965          0.000000
H              0.799571         -0.580965          0.000000
O             -0.009498          3.717422          0.000000
H             -0.354225          4.637569          0.000000
H             -0.768113          3.092915          0.000000

