%NProcShared=4 
%Mem=4GB  
%Chk=H2O_H2O_475.chk 

#p CCSD(T)/cc-pVTZ 

H2O_H2O_475

0 1
O             -0.000000         -0.009833          0.000000
H             -0.799571         -0.580965          0.000000
H              0.799571         -0.580965          0.000000
O             -0.000000          2.102609          0.000000
H              0.799571          2.673741          0.000000
H             -0.799571          2.673741          0.000000

