%NProcShared=4 
%Mem=4GB  
%Chk=H2O_H2O_3109.chk 

#p CCSD(T)/cc-pVTZ 

H2O_H2O_3109

0 1
O             -0.000000         -0.009833          0.000000
H             -0.799571         -0.580965          0.000000
H              0.799571         -0.580965          0.000000
O             -0.005463          4.893093          0.000000
H              0.342052          5.812190          0.000000
H             -0.987586          4.923754          0.000000

