%NProcShared=4 
%Mem=4GB  
%Chk=H2O_H2O_3948.chk 

#p CCSD(T)/cc-pVTZ 

H2O_H2O_3948

0 1
O             -0.000000         -0.009833          0.000000
H             -0.799571         -0.580965          0.000000
H              0.799571         -0.580965          0.000000
O             -0.009812          5.763090          0.000000
H             -0.527427          6.598304          0.000000
H             -0.632016          5.002585          0.000000

