%NProcShared=4 
%Mem=4GB  
%Chk=H2O_H2O_1988.chk 

#p CCSD(T)/cc-pVTZ 

H2O_H2O_1988

0 1
O             -0.000000         -0.009833          0.000000
H             -0.799571         -0.580965          0.000000
H              0.799571         -0.580965          0.000000
O             -0.007393          3.694769          0.000000
H              0.090401          4.672492          0.000000
H             -0.963987          3.470193          0.000000

