%NProcShared=4 
%Mem=4GB  
%Chk=H2O_H2O_2895.chk 

#p CCSD(T)/cc-pVTZ 

H2O_H2O_2895

0 1
O             -0.000000         -0.009833          0.000000
H             -0.799571         -0.580965          0.000000
H              0.799571         -0.580965          0.000000
O             -0.009498          4.648136          0.000000
H             -0.354225          5.568282          0.000000
H             -0.768113          4.023629          0.000000

