%NProcShared=4 
%Mem=4GB  
%Chk=H2O_H2O_2189.chk 

#p CCSD(T)/cc-pVTZ 

H2O_H2O_2189

0 1
O             -0.000000         -0.009833          0.000000
H             -0.799571         -0.580965          0.000000
H              0.799571         -0.580965          0.000000
O             -0.007801          3.907006          0.000000
H              0.025838          4.889032          0.000000
H             -0.947659          3.620346          0.000000

