%NProcShared=4 
%Mem=4GB  
%Chk=H2O_H2O_793.chk 

#p CCSD(T)/cc-pVTZ 

H2O_H2O_793

0 1
O             -0.000000         -0.009833          0.000000
H             -0.799571         -0.580965          0.000000
H              0.799571         -0.580965          0.000000
O             -0.009085          2.415641          0.000000
H             -0.230759          3.372911          0.000000
H             -0.842725          1.895496          0.000000

