%NProcShared=4 
%Mem=4GB  
%Chk=H2O_H2O_3882.chk 

#p CCSD(T)/cc-pVTZ 

H2O_H2O_3882

0 1
O             -0.000000         -0.009833          0.000000
H             -0.799571         -0.580965          0.000000
H              0.799571         -0.580965          0.000000
O             -0.004349          5.718083          0.000000
H              0.460159          6.583957          0.000000
H             -0.974068          5.876674          0.000000

