%NProcShared=4 
%Mem=4GB  
%Chk=H2O_H2O_212.chk 

#p CCSD(T)/cc-pVTZ 

H2O_H2O_212

0 1
O             -0.000000         -0.009833          0.000000
H             -0.799571         -0.580965          0.000000
H              0.799571         -0.580965          0.000000
O             -0.006953          1.807219          0.000000
H              0.154578          2.776453          0.000000
H             -0.976187          1.645688          0.000000

