%NProcShared=4 
%Mem=4GB  
%Chk=H2O_H2O_2886.chk 

#p CCSD(T)/cc-pVTZ 

H2O_H2O_2886

0 1
O             -0.000000         -0.009833          0.000000
H             -0.799571         -0.580965          0.000000
H              0.799571         -0.580965          0.000000
O             -0.006483          4.652984          0.000000
H              0.218093          5.609578          0.000000
H             -0.984207          4.555189          0.000000

