%NProcShared=4 
%Mem=4GB  
%Chk=H2O_H2O_3922.chk 

#p CCSD(T)/cc-pVTZ 

H2O_H2O_3922

0 1
O             -0.000000         -0.009833          0.000000
H             -0.799571         -0.580965          0.000000
H              0.799571         -0.580965          0.000000
O             -0.009749          5.737139          0.000000
H             -0.471630          6.604418          0.000000
H             -0.680360          5.018956          0.000000

