%NProcShared=4 
%Mem=4GB  
%Chk=H2O_H2O_4996.chk 

#p CCSD(T)/cc-pVTZ 

H2O_H2O_4996

0 1
O             -0.000000         -0.009833          0.000000
H             -0.799571         -0.580965          0.000000
H              0.799571         -0.580965          0.000000
O             -0.009644          6.881222          0.000000
H             -0.413813          7.776852          0.000000
H             -0.725791          6.208437          0.000000

