%NProcShared=4 
%Mem=4GB  
%Chk=H2O_H2O_449.chk 

#p CCSD(T)/cc-pVTZ 

H2O_H2O_449

0 1
O             -0.000000         -0.009833          0.000000
H             -0.799571         -0.580965          0.000000
H              0.799571         -0.580965          0.000000
O             -0.009833          2.039593          0.000000
H             -0.580965          2.839164          0.000000
H             -0.580965          1.240021          0.000000

