%NProcShared=4 
%Mem=4GB  
%Chk=H2O_H2O_1441.chk 

#p CCSD(T)/cc-pVTZ 

H2O_H2O_1441

0 1
O             -0.000000         -0.009833          0.000000
H             -0.799571         -0.580965          0.000000
H              0.799571         -0.580965          0.000000
O             -0.008516          3.108182          0.000000
H             -0.103345          4.086197          0.000000
H             -0.902916          2.701299          0.000000

