%NProcShared=4 
%Mem=4GB  
%Chk=H2O_H2O_987.chk 

#p CCSD(T)/cc-pVTZ 

H2O_H2O_987

0 1
O             -0.000000         -0.009833          0.000000
H             -0.799571         -0.580965          0.000000
H              0.799571         -0.580965          0.000000
O             -0.006953          2.631566          0.000000
H              0.154578          3.600799          0.000000
H             -0.976187          2.470035          0.000000

