%NProcShared=4 
%Mem=4GB  
%Chk=H2O_H2O_80.chk 

#p CCSD(T)/cc-pVTZ 

H2O_H2O_80

0 1
O             -0.000000         -0.009833          0.000000
H             -0.799571         -0.580965          0.000000
H              0.799571         -0.580965          0.000000
O             -0.003161          1.676618          0.000000
H              0.570393          2.474454          0.000000
H             -0.943883          1.960427          0.000000

