%NProcShared=4 
%Mem=4GB  
%Chk=H2O_H2O_4946.chk 

#p CCSD(T)/cc-pVTZ 

H2O_H2O_4946

0 1
O             -0.000000         -0.009833          0.000000
H             -0.799571         -0.580965          0.000000
H              0.799571         -0.580965          0.000000
O             -0.009644          6.828038          0.000000
H             -0.413813          7.723668          0.000000
H             -0.725791          6.155253          0.000000

