%NProcShared=4 
%Mem=4GB  
%Chk=H2O_H2O_3508.chk 

#p CCSD(T)/cc-pVTZ 

H2O_H2O_3508

0 1
O             -0.000000         -0.009833          0.000000
H             -0.799571         -0.580965          0.000000
H              0.799571         -0.580965          0.000000
O             -0.004917          5.318902          0.000000
H              0.401967          6.213303          0.000000
H             -0.982932          5.413731          0.000000

