%NProcShared=4 
%Mem=4GB  
%Chk=H2O_H2O_916.chk 

#p CCSD(T)/cc-pVTZ 

H2O_H2O_916

0 1
O             -0.000000         -0.009833          0.000000
H             -0.799571         -0.580965          0.000000
H              0.799571         -0.580965          0.000000
O             -0.008516          2.549754          0.000000
H             -0.103345          3.527769          0.000000
H             -0.902916          2.142871          0.000000

