%NProcShared=4 
%Mem=4GB  
%Chk=H2O_H2O_2897.chk 

#p CCSD(T)/cc-pVTZ 

H2O_H2O_2897

0 1
O             -0.000000         -0.009833          0.000000
H             -0.799571         -0.580965          0.000000
H              0.799571         -0.580965          0.000000
O             -0.009749          4.646874          0.000000
H             -0.471630          5.514153          0.000000
H             -0.680360          3.928691          0.000000

