%NProcShared=4 
%Mem=4GB  
%Chk=H2O_H2O_4448.chk 

#p CCSD(T)/cc-pVTZ 

H2O_H2O_4448

0 1
O             -0.000000         -0.009833          0.000000
H             -0.799571         -0.580965          0.000000
H              0.799571         -0.580965          0.000000
O             -0.009812          6.294927          0.000000
H             -0.527427          7.130140          0.000000
H             -0.632016          5.534421          0.000000

