%NProcShared=4 
%Mem=4GB  
%Chk=H2O_H2O_1552.chk 

#p CCSD(T)/cc-pVTZ 

H2O_H2O_1552

0 1
O             -0.000000         -0.009833          0.000000
H             -0.799571         -0.580965          0.000000
H              0.799571         -0.580965          0.000000
O             -0.001283          3.245973          0.000000
H              0.716900          3.916584          0.000000
H             -0.868562          3.707854          0.000000

