%NProcShared=4 
%Mem=4GB  
%Chk=H2O_H2O_2951.chk 

#p CCSD(T)/cc-pVTZ 

H2O_H2O_2951

0 1
O             -0.000000         -0.009833          0.000000
H             -0.799571         -0.580965          0.000000
H              0.799571         -0.580965          0.000000
O             -0.000643          4.735179          0.000000
H              0.759863          5.357382          0.000000
H             -0.835856          5.252793          0.000000

