%NProcShared=4 
%Mem=4GB  
%Chk=H2O_H2O_2255.chk 

#p CCSD(T)/cc-pVTZ 

H2O_H2O_2255

0 1
O             -0.000000         -0.009833          0.000000
H             -0.799571         -0.580965          0.000000
H              0.799571         -0.580965          0.000000
O             -0.003161          3.990107          0.000000
H              0.570393          4.787943          0.000000
H             -0.943883          4.273915          0.000000

