%NProcShared=4 
%Mem=4GB  
%Chk=H2O_H2O_4519.chk 

#p CCSD(T)/cc-pVTZ 

H2O_H2O_4519

0 1
O             -0.000000         -0.009833          0.000000
H             -0.799571         -0.580965          0.000000
H              0.799571         -0.580965          0.000000
O             -0.009311          6.377220          0.000000
H             -0.293120          7.317942          0.000000
H             -0.807147          5.803666          0.000000

