%NProcShared=4 
%Mem=4GB  
%Chk=H2O_H2O_2349.chk 

#p CCSD(T)/cc-pVTZ 

H2O_H2O_2349

0 1
O             -0.000000         -0.009833          0.000000
H             -0.799571         -0.580965          0.000000
H              0.799571         -0.580965          0.000000
O             -0.009833          4.060571          0.000000
H             -0.580965          4.860142          0.000000
H             -0.580965          3.261000          0.000000

