%NProcShared=4 
%Mem=4GB  
%Chk=H2O_H2O_237.chk 

#p CCSD(T)/cc-pVTZ 

H2O_H2O_237

0 1
O             -0.000000         -0.009833          0.000000
H             -0.799571         -0.580965          0.000000
H              0.799571         -0.580965          0.000000
O             -0.006953          1.833811          0.000000
H              0.154578          2.803045          0.000000
H             -0.976187          1.672280          0.000000

