%NProcShared=4 
%Mem=4GB  
%Chk=H2O_H2O_4436.chk 

#p CCSD(T)/cc-pVTZ 

H2O_H2O_4436

0 1
O             -0.000000         -0.009833          0.000000
H             -0.799571         -0.580965          0.000000
H              0.799571         -0.580965          0.000000
O             -0.006483          6.301677          0.000000
H              0.218093          7.258270          0.000000
H             -0.984207          6.203882          0.000000

