%NProcShared=4 
%Mem=4GB  
%Chk=H2O_H2O_4982.chk 

#p CCSD(T)/cc-pVTZ 

H2O_H2O_4982

0 1
O             -0.000000         -0.009833          0.000000
H             -0.799571         -0.580965          0.000000
H              0.799571         -0.580965          0.000000
O             -0.004349          6.888123          0.000000
H              0.460159          7.753997          0.000000
H             -0.974068          7.046714          0.000000

