%NProcShared=4 
%Mem=4GB  
%Chk=H2O_H2O_3469.chk 

#p CCSD(T)/cc-pVTZ 

H2O_H2O_3469

0 1
O             -0.000000         -0.009833          0.000000
H             -0.799571         -0.580965          0.000000
H              0.799571         -0.580965          0.000000
O             -0.009311          5.260363          0.000000
H             -0.293120          6.201086          0.000000
H             -0.807147          4.686809          0.000000

