%NProcShared=4 
%Mem=4GB  
%Chk=H2O_H2O_4325.chk 

#p CCSD(T)/cc-pVTZ 

H2O_H2O_4325

0 1
O             -0.000000         -0.009833          0.000000
H             -0.799571         -0.580965          0.000000
H              0.799571         -0.580965          0.000000
O             -0.000000          6.197749          0.000000
H              0.799571          6.768882          0.000000
H             -0.799571          6.768881          0.000000

