%NProcShared=4 
%Mem=4GB  
%Chk=H2O_H2O_1253.chk 

#p CCSD(T)/cc-pVTZ 

H2O_H2O_1253

0 1
O             -0.000000         -0.009833          0.000000
H             -0.799571         -0.580965          0.000000
H              0.799571         -0.580965          0.000000
O             -0.001918          2.926767          0.000000
H              0.670867          3.642913          0.000000
H             -0.897548          3.330936          0.000000

