%NProcShared=4 
%Mem=4GB  
%Chk=H2O_H2O_3107.chk 

#p CCSD(T)/cc-pVTZ 

H2O_H2O_3107

0 1
O             -0.000000         -0.009833          0.000000
H             -0.799571         -0.580965          0.000000
H              0.799571         -0.580965          0.000000
O             -0.004349          4.893736          0.000000
H              0.460159          5.759610          0.000000
H             -0.974068          5.052327          0.000000

