%NProcShared=4 
%Mem=4GB  
%Chk=H2O_H2O_56.chk 

#p CCSD(T)/cc-pVTZ 

H2O_H2O_56

0 1
O             -0.000000         -0.009833          0.000000
H             -0.799571         -0.580965          0.000000
H              0.799571         -0.580965          0.000000
O             -0.003763          1.649800          0.000000
H              0.516382          2.483440          0.000000
H             -0.961033          1.871474          0.000000

