%NProcShared=4 
%Mem=4GB  
%Chk=H2O_H2O_2145.chk 

#p CCSD(T)/cc-pVTZ 

H2O_H2O_2145

0 1
O             -0.000000         -0.009833          0.000000
H             -0.799571         -0.580965          0.000000
H              0.799571         -0.580965          0.000000
O             -0.009498          3.850381          0.000000
H             -0.354225          4.770528          0.000000
H             -0.768113          3.225874          0.000000

