%NProcShared=4 
%Mem=4GB  
%Chk=H2O_H2O_4028.chk 

#p CCSD(T)/cc-pVTZ 

H2O_H2O_4028

0 1
O             -0.000000         -0.009833          0.000000
H             -0.799571         -0.580965          0.000000
H              0.799571         -0.580965          0.000000
O             -0.001918          5.878459          0.000000
H              0.670867          6.594605          0.000000
H             -0.897548          6.282628          0.000000

