%NProcShared=4 
%Mem=4GB  
%Chk=H2O_H2O_4546.chk 

#p CCSD(T)/cc-pVTZ 

H2O_H2O_4546

0 1
O             -0.000000         -0.009833          0.000000
H             -0.799571         -0.580965          0.000000
H              0.799571         -0.580965          0.000000
O             -0.009644          6.402569          0.000000
H             -0.413813          7.298199          0.000000
H             -0.725791          5.729784          0.000000

