%NProcShared=4 
%Mem=4GB  
%Chk=H2O_H2O_2612.chk 

#p CCSD(T)/cc-pVTZ 

H2O_H2O_2612

0 1
O             -0.000000         -0.009833          0.000000
H             -0.799571         -0.580965          0.000000
H              0.799571         -0.580965          0.000000
O             -0.006953          4.360034          0.000000
H              0.154578          5.329268          0.000000
H             -0.976187          4.198503          0.000000

