%NProcShared=4 
%Mem=4GB  
%Chk=H2O_H2O_1130.chk 

#p CCSD(T)/cc-pVTZ 

H2O_H2O_1130

0 1
O             -0.000000         -0.009833          0.000000
H             -0.799571         -0.580965          0.000000
H              0.799571         -0.580965          0.000000
O             -0.003161          2.793475          0.000000
H              0.570393          3.591311          0.000000
H             -0.943883          3.077283          0.000000

