%NProcShared=4 
%Mem=4GB  
%Chk=H2O_H2O_2370.chk 

#p CCSD(T)/cc-pVTZ 

H2O_H2O_2370

0 1
O             -0.000000         -0.009833          0.000000
H             -0.799571         -0.580965          0.000000
H              0.799571         -0.580965          0.000000
O             -0.009498          4.089708          0.000000
H             -0.354225          5.009854          0.000000
H             -0.768113          3.465201          0.000000

