%NProcShared=4 
%Mem=4GB  
%Chk=H2O_H2O_2785.chk 

#p CCSD(T)/cc-pVTZ 

H2O_H2O_2785

0 1
O             -0.000000         -0.009833          0.000000
H             -0.799571         -0.580965          0.000000
H              0.799571         -0.580965          0.000000
O             -0.005986          4.547025          0.000000
H              0.280674          5.486882          0.000000
H             -0.988012          4.513386          0.000000

