%NProcShared=4 
%Mem=4GB  
%Chk=H2O_H2O_4268.chk 

#p CCSD(T)/cc-pVTZ 

H2O_H2O_4268

0 1
O             -0.000000         -0.009833          0.000000
H             -0.799571         -0.580965          0.000000
H              0.799571         -0.580965          0.000000
O             -0.009085          6.111904          0.000000
H             -0.230759          7.069174          0.000000
H             -0.842725          5.591759          0.000000

