%NProcShared=4 
%Mem=4GB  
%Chk=H2O_H2O_4570.chk 

#p CCSD(T)/cc-pVTZ 

H2O_H2O_4570

0 1
O             -0.000000         -0.009833          0.000000
H             -0.799571         -0.580965          0.000000
H              0.799571         -0.580965          0.000000
O             -0.009498          6.429788          0.000000
H             -0.354225          7.349935          0.000000
H             -0.768113          5.805281          0.000000

