%NProcShared=4 
%Mem=4GB  
%Chk=H2O_H2O_2161.chk 

#p CCSD(T)/cc-pVTZ 

H2O_H2O_2161

0 1
O             -0.000000         -0.009833          0.000000
H             -0.799571         -0.580965          0.000000
H              0.799571         -0.580965          0.000000
O             -0.006483          3.881821          0.000000
H              0.218093          4.838415          0.000000
H             -0.984207          3.784027          0.000000

