%NProcShared=4 
%Mem=4GB  
%Chk=H2O_H2O_2107.chk 

#p CCSD(T)/cc-pVTZ 

H2O_H2O_2107

0 1
O             -0.000000         -0.009833          0.000000
H             -0.799571         -0.580965          0.000000
H              0.799571         -0.580965          0.000000
O             -0.004349          3.830064          0.000000
H              0.460159          4.695938          0.000000
H             -0.974068          3.988655          0.000000

