%NProcShared=4 
%Mem=4GB  
%Chk=H2O_H2O_3337.chk 

#p CCSD(T)/cc-pVTZ 

H2O_H2O_3337

0 1
O             -0.000000         -0.009833          0.000000
H             -0.799571         -0.580965          0.000000
H              0.799571         -0.580965          0.000000
O             -0.006953          5.131197          0.000000
H              0.154578          6.100430          0.000000
H             -0.976187          4.969666          0.000000

