%NProcShared=4 
%Mem=4GB  
%Chk=H2O_H2O_1134.chk 

#p CCSD(T)/cc-pVTZ 

H2O_H2O_1134

0 1
O             -0.000000         -0.009833          0.000000
H             -0.799571         -0.580965          0.000000
H              0.799571         -0.580965          0.000000
O             -0.005463          2.792340          0.000000
H              0.342052          3.711437          0.000000
H             -0.987586          2.823000          0.000000

