%NProcShared=4 
%Mem=4GB  
%Chk=H2O_H2O_4407.chk 

#p CCSD(T)/cc-pVTZ 

H2O_H2O_4407

0 1
O             -0.000000         -0.009833          0.000000
H             -0.799571         -0.580965          0.000000
H              0.799571         -0.580965          0.000000
O             -0.004349          6.276511          0.000000
H              0.460159          7.142385          0.000000
H             -0.974068          6.435102          0.000000

