%NProcShared=4 
%Mem=4GB  
%Chk=H2O_H2O_4410.chk 

#p CCSD(T)/cc-pVTZ 

H2O_H2O_4410

0 1
O             -0.000000         -0.009833          0.000000
H             -0.799571         -0.580965          0.000000
H              0.799571         -0.580965          0.000000
O             -0.005986          6.275493          0.000000
H              0.280674          7.215351          0.000000
H             -0.988012          6.241854          0.000000

