%NProcShared=4 
%Mem=4GB  
%Chk=H2O_H2O_4574.chk 

#p CCSD(T)/cc-pVTZ 

H2O_H2O_4574

0 1
O             -0.000000         -0.009833          0.000000
H             -0.799571         -0.580965          0.000000
H              0.799571         -0.580965          0.000000
O             -0.009833          6.427243          0.000000
H             -0.580965          7.226814          0.000000
H             -0.580965          5.627672          0.000000

