%NProcShared=4 
%Mem=4GB  
%Chk=H2O_H2O_3287.chk 

#p CCSD(T)/cc-pVTZ 

H2O_H2O_3287

0 1
O             -0.000000         -0.009833          0.000000
H             -0.799571         -0.580965          0.000000
H              0.799571         -0.580965          0.000000
O             -0.006953          5.078013          0.000000
H              0.154578          6.047247          0.000000
H             -0.976187          4.916482          0.000000

