%NProcShared=4 
%Mem=4GB  
%Chk=H2O_H2O_3563.chk 

#p CCSD(T)/cc-pVTZ 

H2O_H2O_3563

0 1
O             -0.000000         -0.009833          0.000000
H             -0.799571         -0.580965          0.000000
H              0.799571         -0.580965          0.000000
O             -0.007393          5.370053          0.000000
H              0.090401          6.347777          0.000000
H             -0.963987          5.145477          0.000000

