%NProcShared=4 
%Mem=4GB  
%Chk=H2O_H2O_3654.chk 

#p CCSD(T)/cc-pVTZ 

H2O_H2O_3654

0 1
O             -0.000000         -0.009833          0.000000
H             -0.799571         -0.580965          0.000000
H              0.799571         -0.580965          0.000000
O             -0.002545          5.479435          0.000000
H              0.621962          6.238051          0.000000
H             -0.922692          5.824162          0.000000

