%NProcShared=4 
%Mem=4GB  
%Chk=H2O_H2O_4233.chk 

#p CCSD(T)/cc-pVTZ 

H2O_H2O_4233

0 1
O             -0.000000         -0.009833          0.000000
H             -0.799571         -0.580965          0.000000
H              0.799571         -0.580965          0.000000
O             -0.004917          6.090065          0.000000
H              0.401967          6.984465          0.000000
H             -0.982932          6.184894          0.000000

