%NProcShared=4 
%Mem=4GB  
%Chk=H2O_H2O_4339.chk 

#p CCSD(T)/cc-pVTZ 

H2O_H2O_4339

0 1
O             -0.000000         -0.009833          0.000000
H             -0.799571         -0.580965          0.000000
H              0.799571         -0.580965          0.000000
O             -0.007801          6.193902          0.000000
H              0.025838          7.175928          0.000000
H             -0.947659          5.907243          0.000000

