%NProcShared=4 
%Mem=4GB  
%Chk=H2O_H2O_525.chk 

#p CCSD(T)/cc-pVTZ 

H2O_H2O_525

0 1
O             -0.000000         -0.009833          0.000000
H             -0.799571         -0.580965          0.000000
H              0.799571         -0.580965          0.000000
O             -0.000000          2.155793          0.000000
H              0.799571          2.726925          0.000000
H             -0.799571          2.726925          0.000000

