%NProcShared=4 
%Mem=4GB  
%Chk=H2O_H2O_1789.chk 

#p CCSD(T)/cc-pVTZ 

H2O_H2O_1789

0 1
O             -0.000000         -0.009833          0.000000
H             -0.799571         -0.580965          0.000000
H              0.799571         -0.580965          0.000000
O             -0.007801          3.481537          0.000000
H              0.025838          4.463563          0.000000
H             -0.947659          3.194877          0.000000

