%NProcShared=4 
%Mem=4GB  
%Chk=H2O_H2O_3142.chk 

#p CCSD(T)/cc-pVTZ 

H2O_H2O_3142

0 1
O             -0.000000         -0.009833          0.000000
H             -0.799571         -0.580965          0.000000
H              0.799571         -0.580965          0.000000
O             -0.008819          4.915858          0.000000
H             -0.167410          5.885577          0.000000
H             -0.874693          4.451350          0.000000

