%NProcShared=4 
%Mem=4GB  
%Chk=H2O_H2O_3173.chk 

#p CCSD(T)/cc-pVTZ 

H2O_H2O_3173

0 1
O             -0.000000         -0.009833          0.000000
H             -0.799571         -0.580965          0.000000
H              0.799571         -0.580965          0.000000
O             -0.009812          4.938744          0.000000
H             -0.527427          5.773957          0.000000
H             -0.632016          4.178238          0.000000

