%NProcShared=4 
%Mem=4GB  
%Chk=H2O_H2O_2499.chk 

#p CCSD(T)/cc-pVTZ 

H2O_H2O_2499

0 1
O             -0.000000         -0.009833          0.000000
H             -0.799571         -0.580965          0.000000
H              0.799571         -0.580965          0.000000
O             -0.009833          4.220122          0.000000
H             -0.580965          5.019693          0.000000
H             -0.580965          3.420550          0.000000

