%NProcShared=4 
%Mem=4GB  
%Chk=H2O_H2O_3016.chk 

#p CCSD(T)/cc-pVTZ 

H2O_H2O_3016

0 1
O             -0.000000         -0.009833          0.000000
H             -0.799571         -0.580965          0.000000
H              0.799571         -0.580965          0.000000
O             -0.008516          4.783466          0.000000
H             -0.103345          5.761482          0.000000
H             -0.902916          4.376583          0.000000

