%NProcShared=4 
%Mem=4GB  
%Chk=H2O_H2O_1634.chk 

#p CCSD(T)/cc-pVTZ 

H2O_H2O_1634

0 1
O             -0.000000         -0.009833          0.000000
H             -0.799571         -0.580965          0.000000
H              0.799571         -0.580965          0.000000
O             -0.005463          3.324176          0.000000
H              0.342052          4.243273          0.000000
H             -0.987586          3.354837          0.000000

