%NProcShared=4 
%Mem=4GB  
%Chk=H2O_H2O_391.chk 

#p CCSD(T)/cc-pVTZ 

H2O_H2O_391

0 1
O             -0.000000         -0.009833          0.000000
H             -0.799571         -0.580965          0.000000
H              0.799571         -0.580965          0.000000
O             -0.008516          1.991326          0.000000
H             -0.103345          2.969341          0.000000
H             -0.902916          1.584442          0.000000

