%NProcShared=4 
%Mem=4GB  
%Chk=H2O_H2O_2505.chk 

#p CCSD(T)/cc-pVTZ 

H2O_H2O_2505

0 1
O             -0.000000         -0.009833          0.000000
H             -0.799571         -0.580965          0.000000
H              0.799571         -0.580965          0.000000
O             -0.003161          4.256025          0.000000
H              0.570393          5.053861          0.000000
H             -0.943883          4.539833          0.000000

