%NProcShared=4 
%Mem=4GB  
%Chk=H2O_H2O_2165.chk 

#p CCSD(T)/cc-pVTZ 

H2O_H2O_2165

0 1
O             -0.000000         -0.009833          0.000000
H             -0.799571         -0.580965          0.000000
H              0.799571         -0.580965          0.000000
O             -0.008176          3.879891          0.000000
H             -0.038837          4.862014          0.000000
H             -0.927273          3.532376          0.000000

