%NProcShared=4 
%Mem=4GB  
%Chk=H2O_H2O_1081.chk 

#p CCSD(T)/cc-pVTZ 

H2O_H2O_1081

0 1
O             -0.000000         -0.009833          0.000000
H             -0.799571         -0.580965          0.000000
H              0.799571         -0.580965          0.000000
O             -0.003763          2.740064          0.000000
H              0.516382          3.573704          0.000000
H             -0.961033          2.961739          0.000000

