%NProcShared=4 
%Mem=4GB  
%Chk=H2O_H2O_1796.chk 

#p CCSD(T)/cc-pVTZ 

H2O_H2O_1796

0 1
O             -0.000000         -0.009833          0.000000
H             -0.799571         -0.580965          0.000000
H              0.799571         -0.580965          0.000000
O             -0.009644          3.477469          0.000000
H             -0.413813          4.373099          0.000000
H             -0.725791          2.804684          0.000000

