%NProcShared=4 
%Mem=4GB  
%Chk=H2O_H2O_1844.chk 

#p CCSD(T)/cc-pVTZ 

H2O_H2O_1844

0 1
O             -0.000000         -0.009833          0.000000
H             -0.799571         -0.580965          0.000000
H              0.799571         -0.580965          0.000000
O             -0.009311          3.531895          0.000000
H             -0.293120          4.472618          0.000000
H             -0.807147          2.958341          0.000000

