%NProcShared=4 
%Mem=4GB  
%Chk=H2O_H2O_2654.chk 

#p CCSD(T)/cc-pVTZ 

H2O_H2O_2654

0 1
O             -0.000000         -0.009833          0.000000
H             -0.799571         -0.580965          0.000000
H              0.799571         -0.580965          0.000000
O             -0.002545          4.415763          0.000000
H              0.621962          5.174378          0.000000
H             -0.922692          4.760490          0.000000

