%NProcShared=4 
%Mem=4GB  
%Chk=H2O_H2O_246.chk 

#p CCSD(T)/cc-pVTZ 

H2O_H2O_246

0 1
O             -0.000000         -0.009833          0.000000
H             -0.799571         -0.580965          0.000000
H              0.799571         -0.580965          0.000000
O             -0.009644          1.828776          0.000000
H             -0.413813          2.724407          0.000000
H             -0.725791          1.155991          0.000000

