%NProcShared=4 
%Mem=4GB  
%Chk=H2O_H2O_4881.chk 

#p CCSD(T)/cc-pVTZ 

H2O_H2O_4881

0 1
O             -0.000000         -0.009833          0.000000
H             -0.799571         -0.580965          0.000000
H              0.799571         -0.580965          0.000000
O             -0.003763          6.782021          0.000000
H              0.516382          7.615661          0.000000
H             -0.961033          7.003696          0.000000

