%NProcShared=4 
%Mem=4GB  
%Chk=H2O_H2O_3000.chk 

#p CCSD(T)/cc-pVTZ 

H2O_H2O_3000

0 1
O             -0.000000         -0.009833          0.000000
H             -0.799571         -0.580965          0.000000
H              0.799571         -0.580965          0.000000
O             -0.000000          4.788383          0.000000
H              0.799571          5.359515          0.000000
H             -0.799571          5.359515          0.000000

