%NProcShared=4 
%Mem=4GB  
%Chk=H2O_H2O_4179.chk 

#p CCSD(T)/cc-pVTZ 

H2O_H2O_4179

0 1
O             -0.000000         -0.009833          0.000000
H             -0.799571         -0.580965          0.000000
H              0.799571         -0.580965          0.000000
O             -0.002545          6.037864          0.000000
H              0.621962          6.796479          0.000000
H             -0.922692          6.382591          0.000000

