%NProcShared=4 
%Mem=4GB  
%Chk=H2O_H2O_3009.chk 

#p CCSD(T)/cc-pVTZ 

H2O_H2O_3009

0 1
O             -0.000000         -0.009833          0.000000
H             -0.799571         -0.580965          0.000000
H              0.799571         -0.580965          0.000000
O             -0.005463          4.786726          0.000000
H              0.342052          5.705823          0.000000
H             -0.987586          4.817387          0.000000

