%NProcShared=4 
%Mem=4GB  
%Chk=H2O_H2O_2960.chk 

#p CCSD(T)/cc-pVTZ 

H2O_H2O_2960

0 1
O             -0.000000         -0.009833          0.000000
H             -0.799571         -0.580965          0.000000
H              0.799571         -0.580965          0.000000
O             -0.005986          4.733168          0.000000
H              0.280674          5.673025          0.000000
H             -0.988012          4.699529          0.000000

