%NProcShared=4 
%Mem=4GB  
%Chk=H2O_H2O_405.chk 

#p CCSD(T)/cc-pVTZ 

H2O_H2O_405

0 1
O             -0.000000         -0.009833          0.000000
H             -0.799571         -0.580965          0.000000
H              0.799571         -0.580965          0.000000
O             -0.003161          2.022312          0.000000
H              0.570393          2.820148          0.000000
H             -0.943883          2.306120          0.000000

