%NProcShared=4 
%Mem=4GB  
%Chk=H2O_H2O_3952.chk 

#p CCSD(T)/cc-pVTZ 

H2O_H2O_3952

0 1
O             -0.000000         -0.009833          0.000000
H             -0.799571         -0.580965          0.000000
H              0.799571         -0.580965          0.000000
O             -0.001283          5.798788          0.000000
H              0.716900          6.469399          0.000000
H             -0.868562          6.260669          0.000000

