%NProcShared=4 
%Mem=4GB  
%Chk=H2O_H2O_716.chk 

#p CCSD(T)/cc-pVTZ 

H2O_H2O_716

0 1
O             -0.000000         -0.009833          0.000000
H             -0.799571         -0.580965          0.000000
H              0.799571         -0.580965          0.000000
O             -0.008516          2.337019          0.000000
H             -0.103345          3.315034          0.000000
H             -0.902916          1.930136          0.000000

