%NProcShared=4 
%Mem=4GB  
%Chk=H2O_H2O_1590.chk 

#p CCSD(T)/cc-pVTZ 

H2O_H2O_1590

0 1
O             -0.000000         -0.009833          0.000000
H             -0.799571         -0.580965          0.000000
H              0.799571         -0.580965          0.000000
O             -0.008176          3.268279          0.000000
H             -0.038837          4.250403          0.000000
H             -0.927273          2.920764          0.000000

