%NProcShared=4 
%Mem=4GB  
%Chk=H2O_H2O_4766.chk 

#p CCSD(T)/cc-pVTZ 

H2O_H2O_4766

0 1
O             -0.000000         -0.009833          0.000000
H             -0.799571         -0.580965          0.000000
H              0.799571         -0.580965          0.000000
O             -0.008516          6.644894          0.000000
H             -0.103345          7.622909          0.000000
H             -0.902916          6.238011          0.000000

