%NProcShared=4 
%Mem=4GB  
%Chk=H2O_H2O_4995.chk 

#p CCSD(T)/cc-pVTZ 

H2O_H2O_4995

0 1
O             -0.000000         -0.009833          0.000000
H             -0.799571         -0.580965          0.000000
H              0.799571         -0.580965          0.000000
O             -0.009498          6.881849          0.000000
H             -0.354225          7.801995          0.000000
H             -0.768113          6.257342          0.000000

