%NProcShared=4 
%Mem=4GB  
%Chk=H2O_H2O_1356.chk 

#p CCSD(T)/cc-pVTZ 

H2O_H2O_1356

0 1
O             -0.000000         -0.009833          0.000000
H             -0.799571         -0.580965          0.000000
H              0.799571         -0.580965          0.000000
O             -0.003763          3.032575          0.000000
H              0.516382          3.866214          0.000000
H             -0.961033          3.254249          0.000000

