%NProcShared=4 
%Mem=4GB  
%Chk=H2O_H2O_1859.chk 

#p CCSD(T)/cc-pVTZ 

H2O_H2O_1859

0 1
O             -0.000000         -0.009833          0.000000
H             -0.799571         -0.580965          0.000000
H              0.799571         -0.580965          0.000000
O             -0.005463          3.563502          0.000000
H              0.342052          4.482599          0.000000
H             -0.987586          3.594163          0.000000

