%NProcShared=4 
%Mem=4GB  
%Chk=H2O_H2O_1987.chk 

#p CCSD(T)/cc-pVTZ 

H2O_H2O_1987

0 1
O             -0.000000         -0.009833          0.000000
H             -0.799571         -0.580965          0.000000
H              0.799571         -0.580965          0.000000
O             -0.006953          3.695238          0.000000
H              0.154578          4.664472          0.000000
H             -0.976187          3.533707          0.000000

