%NProcShared=4 
%Mem=4GB  
%Chk=H2O_H2O_4493.chk 

#p CCSD(T)/cc-pVTZ 

H2O_H2O_4493

0 1
O             -0.000000         -0.009833          0.000000
H             -0.799571         -0.580965          0.000000
H              0.799571         -0.580965          0.000000
O             -0.009085          6.351230          0.000000
H             -0.230759          7.308501          0.000000
H             -0.842725          5.831086          0.000000

