%NProcShared=4 
%Mem=4GB  
%Chk=H2O_H2O_3216.chk 

#p CCSD(T)/cc-pVTZ 

H2O_H2O_3216

0 1
O             -0.000000         -0.009833          0.000000
H             -0.799571         -0.580965          0.000000
H              0.799571         -0.580965          0.000000
O             -0.008516          4.996201          0.000000
H             -0.103345          5.974216          0.000000
H             -0.902916          4.589318          0.000000

