%NProcShared=4 
%Mem=4GB  
%Chk=H2O_H2O_1351.chk 

#p CCSD(T)/cc-pVTZ 

H2O_H2O_1351

0 1
O             -0.000000         -0.009833          0.000000
H             -0.799571         -0.580965          0.000000
H              0.799571         -0.580965          0.000000
O             -0.000643          3.033302          0.000000
H              0.759863          3.655506          0.000000
H             -0.835856          3.550917          0.000000

