%NProcShared=4 
%Mem=4GB  
%Chk=H2O_H2O_233.chk 

#p CCSD(T)/cc-pVTZ 

H2O_H2O_233

0 1
O             -0.000000         -0.009833          0.000000
H             -0.799571         -0.580965          0.000000
H              0.799571         -0.580965          0.000000
O             -0.004917          1.835374          0.000000
H              0.401967          2.729774          0.000000
H             -0.982932          1.930203          0.000000

