%NProcShared=4 
%Mem=4GB  
%Chk=H2O_H2O_2265.chk 

#p CCSD(T)/cc-pVTZ 

H2O_H2O_2265

0 1
O             -0.000000         -0.009833          0.000000
H             -0.799571         -0.580965          0.000000
H              0.799571         -0.580965          0.000000
O             -0.008176          3.986258          0.000000
H             -0.038837          4.968382          0.000000
H             -0.927273          3.638743          0.000000

