%NProcShared=4 
%Mem=4GB  
%Chk=H2O_H2O_4579.chk 

#p CCSD(T)/cc-pVTZ 

H2O_H2O_4579

0 1
O             -0.000000         -0.009833          0.000000
H             -0.799571         -0.580965          0.000000
H              0.799571         -0.580965          0.000000
O             -0.002545          6.463333          0.000000
H              0.621962          7.221948          0.000000
H             -0.922692          6.808060          0.000000

