%NProcShared=4 
%Mem=4GB  
%Chk=H2O_H2O_4760.chk 

#p CCSD(T)/cc-pVTZ 

H2O_H2O_4760

0 1
O             -0.000000         -0.009833          0.000000
H             -0.799571         -0.580965          0.000000
H              0.799571         -0.580965          0.000000
O             -0.005986          6.647779          0.000000
H              0.280674          7.587636          0.000000
H             -0.988012          6.614140          0.000000

