%NProcShared=4 
%Mem=4GB  
%Chk=H2O_H2O_18.chk 

#p CCSD(T)/cc-pVTZ 

H2O_H2O_18

0 1
O             -0.000000         -0.009833          0.000000
H             -0.799571         -0.580965          0.000000
H              0.799571         -0.580965          0.000000
O             -0.009085          1.591295          0.000000
H             -0.230759          2.548565          0.000000
H             -0.842725          1.071150          0.000000

