%NProcShared=4 
%Mem=4GB  
%Chk=H2O_H2O_4627.chk 

#p CCSD(T)/cc-pVTZ 

H2O_H2O_4627

0 1
O             -0.000000         -0.009833          0.000000
H             -0.799571         -0.580965          0.000000
H              0.799571         -0.580965          0.000000
O             -0.001283          6.516767          0.000000
H              0.716900          7.187378          0.000000
H             -0.868562          6.978648          0.000000

