%NProcShared=4 
%Mem=4GB  
%Chk=H2O_H2O_113.chk 

#p CCSD(T)/cc-pVTZ 

H2O_H2O_113

0 1
O             -0.000000         -0.009833          0.000000
H             -0.799571         -0.580965          0.000000
H              0.799571         -0.580965          0.000000
O             -0.007393          1.700382          0.000000
H              0.090401          2.678105          0.000000
H             -0.963987          1.475806          0.000000

