%NProcShared=4 
%Mem=4GB  
%Chk=H2O_H2O_3641.chk 

#p CCSD(T)/cc-pVTZ 

H2O_H2O_3641

0 1
O             -0.000000         -0.009833          0.000000
H             -0.799571         -0.580965          0.000000
H              0.799571         -0.580965          0.000000
O             -0.008516          5.448262          0.000000
H             -0.103345          6.426277          0.000000
H             -0.902916          5.041379          0.000000

