%NProcShared=4 
%Mem=4GB  
%Chk=H2O_H2O_4952.chk 

#p CCSD(T)/cc-pVTZ 

H2O_H2O_4952

0 1
O             -0.000000         -0.009833          0.000000
H             -0.799571         -0.580965          0.000000
H              0.799571         -0.580965          0.000000
O             -0.001283          6.862461          0.000000
H              0.716900          7.533072          0.000000
H             -0.868562          7.324342          0.000000

