%NProcShared=4 
%Mem=4GB  
%Chk=H2O_H2O_26.chk 

#p CCSD(T)/cc-pVTZ 

H2O_H2O_26

0 1
O             -0.000000         -0.009833          0.000000
H             -0.799571         -0.580965          0.000000
H              0.799571         -0.580965          0.000000
O             -0.000643          1.623936          0.000000
H              0.759863          2.246139          0.000000
H             -0.835856          2.141550          0.000000

