%NProcShared=4 
%Mem=4GB  
%Chk=H2O_H2O_670.chk 

#p CCSD(T)/cc-pVTZ 

H2O_H2O_670

0 1
O             -0.000000         -0.009833          0.000000
H             -0.799571         -0.580965          0.000000
H              0.799571         -0.580965          0.000000
O             -0.009498          2.281464          0.000000
H             -0.354225          3.201611          0.000000
H             -0.768113          1.656957          0.000000

