%NProcShared=4 
%Mem=4GB  
%Chk=H2O_H2O_1610.chk 

#p CCSD(T)/cc-pVTZ 

H2O_H2O_1610

0 1
O             -0.000000         -0.009833          0.000000
H             -0.799571         -0.580965          0.000000
H              0.799571         -0.580965          0.000000
O             -0.005986          3.297209          0.000000
H              0.280674          4.237067          0.000000
H             -0.988012          3.263570          0.000000

