%NProcShared=4 
%Mem=4GB  
%Chk=H2O_H2O_1513.chk 

#p CCSD(T)/cc-pVTZ 

H2O_H2O_1513

0 1
O             -0.000000         -0.009833          0.000000
H             -0.799571         -0.580965          0.000000
H              0.799571         -0.580965          0.000000
O             -0.007393          3.189524          0.000000
H              0.090401          4.167247          0.000000
H             -0.963987          2.964948          0.000000

