%NProcShared=4 
%Mem=4GB  
%Chk=H2O_H2O_471.chk 

#p CCSD(T)/cc-pVTZ 

H2O_H2O_471

0 1
O             -0.000000         -0.009833          0.000000
H             -0.799571         -0.580965          0.000000
H              0.799571         -0.580965          0.000000
O             -0.009644          2.068103          0.000000
H             -0.413813          2.963733          0.000000
H             -0.725791          1.395317          0.000000

