%NProcShared=4 
%Mem=4GB  
%Chk=H2O_H2O_730.chk 

#p CCSD(T)/cc-pVTZ 

H2O_H2O_730

0 1
O             -0.000000         -0.009833          0.000000
H             -0.799571         -0.580965          0.000000
H              0.799571         -0.580965          0.000000
O             -0.003161          2.368006          0.000000
H              0.570393          3.165841          0.000000
H             -0.943883          2.651814          0.000000

