%NProcShared=4 
%Mem=4GB  
%Chk=H2O_H2O_2073.chk 

#p CCSD(T)/cc-pVTZ 

H2O_H2O_2073

0 1
O             -0.000000         -0.009833          0.000000
H             -0.799571         -0.580965          0.000000
H              0.799571         -0.580965          0.000000
O             -0.009812          3.768704          0.000000
H             -0.527427          4.603917          0.000000
H             -0.632016          3.008198          0.000000

