%NProcShared=4 
%Mem=4GB  
%Chk=H2O_H2O_305.chk 

#p CCSD(T)/cc-pVTZ 

H2O_H2O_305

0 1
O             -0.000000         -0.009833          0.000000
H             -0.799571         -0.580965          0.000000
H              0.799571         -0.580965          0.000000
O             -0.003161          1.915945          0.000000
H              0.570393          2.713781          0.000000
H             -0.943883          2.199753          0.000000

