%NProcShared=4 
%Mem=4GB  
%Chk=H2O_H2O_1940.chk 

#p CCSD(T)/cc-pVTZ 

H2O_H2O_1940

0 1
O             -0.000000         -0.009833          0.000000
H             -0.799571         -0.580965          0.000000
H              0.799571         -0.580965          0.000000
O             -0.008176          3.640565          0.000000
H             -0.038837          4.622688          0.000000
H             -0.927273          3.293050          0.000000

