%NProcShared=4 
%Mem=4GB  
%Chk=H2O_H2O_2258.chk 

#p CCSD(T)/cc-pVTZ 

H2O_H2O_2258

0 1
O             -0.000000         -0.009833          0.000000
H             -0.799571         -0.580965          0.000000
H              0.799571         -0.580965          0.000000
O             -0.004917          3.989311          0.000000
H              0.401967          4.883712          0.000000
H             -0.982932          4.084140          0.000000

