%NProcShared=4 
%Mem=4GB  
%Chk=H2O_H2O_3421.chk 

#p CCSD(T)/cc-pVTZ 

H2O_H2O_3421

0 1
O             -0.000000         -0.009833          0.000000
H             -0.799571         -0.580965          0.000000
H              0.799571         -0.580965          0.000000
O             -0.009644          5.205938          0.000000
H             -0.413813          6.101568          0.000000
H             -0.725791          4.533152          0.000000

