%NProcShared=4 
%Mem=4GB  
%Chk=H2O_H2O_3781.chk 

#p CCSD(T)/cc-pVTZ 

H2O_H2O_3781

0 1
O             -0.000000         -0.009833          0.000000
H             -0.799571         -0.580965          0.000000
H              0.799571         -0.580965          0.000000
O             -0.003763          5.611981          0.000000
H              0.516382          6.445621          0.000000
H             -0.961033          5.833655          0.000000

