%NProcShared=4 
%Mem=4GB  
%Chk=H2O_H2O_2963.chk 

#p CCSD(T)/cc-pVTZ 

H2O_H2O_2963

0 1
O             -0.000000         -0.009833          0.000000
H             -0.799571         -0.580965          0.000000
H              0.799571         -0.580965          0.000000
O             -0.007393          4.731850          0.000000
H              0.090401          5.709573          0.000000
H             -0.963987          4.507274          0.000000

