%NProcShared=4 
%Mem=4GB  
%Chk=H2O_H2O_4843.chk 

#p CCSD(T)/cc-pVTZ 

H2O_H2O_4843

0 1
O             -0.000000         -0.009833          0.000000
H             -0.799571         -0.580965          0.000000
H              0.799571         -0.580965          0.000000
O             -0.009085          6.723516          0.000000
H             -0.230759          7.680786          0.000000
H             -0.842725          6.203371          0.000000

