%NProcShared=4 
%Mem=4GB  
%Chk=H2O_H2O_2428.chk 

#p CCSD(T)/cc-pVTZ 

H2O_H2O_2428

0 1
O             -0.000000         -0.009833          0.000000
H             -0.799571         -0.580965          0.000000
H              0.799571         -0.580965          0.000000
O             -0.001918          4.176582          0.000000
H              0.670867          4.892729          0.000000
H             -0.897548          4.580752          0.000000

