%NProcShared=4 
%Mem=4GB  
%Chk=H2O_H2O_7.chk 

#p CCSD(T)/cc-pVTZ 

H2O_H2O_7

0 1
O             -0.000000         -0.009833          0.000000
H             -0.799571         -0.580965          0.000000
H              0.799571         -0.580965          0.000000
O             -0.004349          1.596351          0.000000
H              0.460159          2.462225          0.000000
H             -0.974068          1.754942          0.000000

