%NProcShared=4 
%Mem=4GB  
%Chk=H2O_H2O_3946.chk 

#p CCSD(T)/cc-pVTZ 

H2O_H2O_3946

0 1
O             -0.000000         -0.009833          0.000000
H             -0.799571         -0.580965          0.000000
H              0.799571         -0.580965          0.000000
O             -0.009644          5.764366          0.000000
H             -0.413813          6.659996          0.000000
H             -0.725791          5.091580          0.000000

