%NProcShared=4 
%Mem=4GB  
%Chk=H2O_H2O_760.chk 

#p CCSD(T)/cc-pVTZ 

H2O_H2O_760

0 1
O             -0.000000         -0.009833          0.000000
H             -0.799571         -0.580965          0.000000
H              0.799571         -0.580965          0.000000
O             -0.005986          2.393087          0.000000
H              0.280674          3.332945          0.000000
H             -0.988012          2.359449          0.000000

