%NProcShared=4 
%Mem=4GB  
%Chk=H2O_H2O_1240.chk 

#p CCSD(T)/cc-pVTZ 

H2O_H2O_1240

0 1
O             -0.000000         -0.009833          0.000000
H             -0.799571         -0.580965          0.000000
H              0.799571         -0.580965          0.000000
O             -0.008176          2.895994          0.000000
H             -0.038837          3.878117          0.000000
H             -0.927273          2.548479          0.000000

