%NProcShared=4 
%Mem=4GB  
%Chk=H2O_H2O_2520.chk 

#p CCSD(T)/cc-pVTZ 

H2O_H2O_2520

0 1
O             -0.000000         -0.009833          0.000000
H             -0.799571         -0.580965          0.000000
H              0.799571         -0.580965          0.000000
O             -0.009498          4.249259          0.000000
H             -0.354225          5.169405          0.000000
H             -0.768113          3.624752          0.000000

