%NProcShared=4 
%Mem=4GB  
%Chk=H2O_H2O_2016.chk 

#p CCSD(T)/cc-pVTZ 

H2O_H2O_2016

0 1
O             -0.000000         -0.009833          0.000000
H             -0.799571         -0.580965          0.000000
H              0.799571         -0.580965          0.000000
O             -0.008516          3.719794          0.000000
H             -0.103345          4.697809          0.000000
H             -0.902916          3.312911          0.000000

