%NProcShared=4 
%Mem=4GB  
%Chk=H2O_H2O_4741.chk 

#p CCSD(T)/cc-pVTZ 

H2O_H2O_4741

0 1
O             -0.000000         -0.009833          0.000000
H             -0.799571         -0.580965          0.000000
H              0.799571         -0.580965          0.000000
O             -0.008516          6.618302          0.000000
H             -0.103345          7.596317          0.000000
H             -0.902916          6.211419          0.000000

