%NProcShared=4 
%Mem=4GB  
%Chk=H2O_H2O_706.chk 

#p CCSD(T)/cc-pVTZ 

H2O_H2O_706

0 1
O             -0.000000         -0.009833          0.000000
H             -0.799571         -0.580965          0.000000
H              0.799571         -0.580965          0.000000
O             -0.003763          2.341187          0.000000
H              0.516382          3.174827          0.000000
H             -0.961033          2.562862          0.000000

