%NProcShared=4 
%Mem=4GB  
%Chk=H2O_H2O_2539.chk 

#p CCSD(T)/cc-pVTZ 

H2O_H2O_2539

0 1
O             -0.000000         -0.009833          0.000000
H             -0.799571         -0.580965          0.000000
H              0.799571         -0.580965          0.000000
O             -0.007801          4.279291          0.000000
H              0.025838          5.261317          0.000000
H             -0.947659          3.992632          0.000000

