%NProcShared=4 
%Mem=4GB  
%Chk=H2O_H2O_4876.chk 

#p CCSD(T)/cc-pVTZ 

H2O_H2O_4876

0 1
O             -0.000000         -0.009833          0.000000
H             -0.799571         -0.580965          0.000000
H              0.799571         -0.580965          0.000000
O             -0.000643          6.782749          0.000000
H              0.759863          7.404952          0.000000
H             -0.835856          7.300363          0.000000

