%NProcShared=4 
%Mem=4GB  
%Chk=H2O_H2O_633.chk 

#p CCSD(T)/cc-pVTZ 

H2O_H2O_633

0 1
O             -0.000000         -0.009833          0.000000
H             -0.799571         -0.580965          0.000000
H              0.799571         -0.580965          0.000000
O             -0.004917          2.260843          0.000000
H              0.401967          3.155243          0.000000
H             -0.982932          2.355672          0.000000

