%NProcShared=4 
%Mem=4GB  
%Chk=H2O_H2O_4905.chk 

#p CCSD(T)/cc-pVTZ 

H2O_H2O_4905

0 1
O             -0.000000         -0.009833          0.000000
H             -0.799571         -0.580965          0.000000
H              0.799571         -0.580965          0.000000
O             -0.003161          6.808839          0.000000
H              0.570393          7.606675          0.000000
H             -0.943883          7.092648          0.000000

