%NProcShared=4 
%Mem=4GB  
%Chk=H2O_H2O_579.chk 

#p CCSD(T)/cc-pVTZ 

H2O_H2O_579

0 1
O             -0.000000         -0.009833          0.000000
H             -0.799571         -0.580965          0.000000
H              0.799571         -0.580965          0.000000
O             -0.002545          2.208642          0.000000
H              0.621962          2.967257          0.000000
H             -0.922692          2.553368          0.000000

