%NProcShared=4 
%Mem=4GB  
%Chk=H2O_H2O_2976.chk 

#p CCSD(T)/cc-pVTZ 

H2O_H2O_2976

0 1
O             -0.000000         -0.009833          0.000000
H             -0.799571         -0.580965          0.000000
H              0.799571         -0.580965          0.000000
O             -0.000643          4.761770          0.000000
H              0.759863          5.383974          0.000000
H             -0.835856          5.279385          0.000000

