%NProcShared=4 
%Mem=4GB  
%Chk=H2O_H2O_3565.chk 

#p CCSD(T)/cc-pVTZ 

H2O_H2O_3565

0 1
O             -0.000000         -0.009833          0.000000
H             -0.799571         -0.580965          0.000000
H              0.799571         -0.580965          0.000000
O             -0.008176          5.369033          0.000000
H             -0.038837          6.351156          0.000000
H             -0.927273          5.021518          0.000000

