%NProcShared=4 
%Mem=4GB  
%Chk=H2O_H2O_2204.chk 

#p CCSD(T)/cc-pVTZ 

H2O_H2O_2204

0 1
O             -0.000000         -0.009833          0.000000
H             -0.799571         -0.580965          0.000000
H              0.799571         -0.580965          0.000000
O             -0.002545          3.937110          0.000000
H              0.621962          4.695725          0.000000
H             -0.922692          4.281837          0.000000

