%NProcShared=4 
%Mem=4GB  
%Chk=H2O_H2O_4267.chk 

#p CCSD(T)/cc-pVTZ 

H2O_H2O_4267

0 1
O             -0.000000         -0.009833          0.000000
H             -0.799571         -0.580965          0.000000
H              0.799571         -0.580965          0.000000
O             -0.008819          6.112490          0.000000
H             -0.167410          7.082209          0.000000
H             -0.874693          5.647981          0.000000

