%NProcShared=4 
%Mem=4GB  
%Chk=H2O_H2O_2256.chk 

#p CCSD(T)/cc-pVTZ 

H2O_H2O_2256

0 1
O             -0.000000         -0.009833          0.000000
H             -0.799571         -0.580965          0.000000
H              0.799571         -0.580965          0.000000
O             -0.003763          3.989880          0.000000
H              0.516382          4.823520          0.000000
H             -0.961033          4.211554          0.000000

