%NProcShared=4 
%Mem=4GB  
%Chk=H2O_H2O_3410.chk 

#p CCSD(T)/cc-pVTZ 

H2O_H2O_3410

0 1
O             -0.000000         -0.009833          0.000000
H             -0.799571         -0.580965          0.000000
H              0.799571         -0.580965          0.000000
O             -0.005986          5.211821          0.000000
H              0.280674          6.151678          0.000000
H             -0.988012          5.178182          0.000000

