%NProcShared=4 
%Mem=4GB  
%Chk=H2O_H2O_1787.chk 

#p CCSD(T)/cc-pVTZ 

H2O_H2O_1787

0 1
O             -0.000000         -0.009833          0.000000
H             -0.799571         -0.580965          0.000000
H              0.799571         -0.580965          0.000000
O             -0.006953          3.482504          0.000000
H              0.154578          4.451738          0.000000
H             -0.976187          3.320973          0.000000

