%NProcShared=4 
%Mem=4GB  
%Chk=H2O_H2O_2184.chk 

#p CCSD(T)/cc-pVTZ 

H2O_H2O_2184

0 1
O             -0.000000         -0.009833          0.000000
H             -0.799571         -0.580965          0.000000
H              0.799571         -0.580965          0.000000
O             -0.005463          3.909196          0.000000
H              0.342052          4.828293          0.000000
H             -0.987586          3.939857          0.000000

