%NProcShared=4 
%Mem=4GB  
%Chk=H2O_H2O_825.chk 

#p CCSD(T)/cc-pVTZ 

H2O_H2O_825

0 1
O             -0.000000         -0.009833          0.000000
H             -0.799571         -0.580965          0.000000
H              0.799571         -0.580965          0.000000
O             -0.000000          2.474895          0.000000
H              0.799571          3.046027          0.000000
H             -0.799571          3.046027          0.000000

