%NProcShared=4 
%Mem=4GB  
%Chk=H2O_H2O_3449.chk 

#p CCSD(T)/cc-pVTZ 

H2O_H2O_3449

0 1
O             -0.000000         -0.009833          0.000000
H             -0.799571         -0.580965          0.000000
H              0.799571         -0.580965          0.000000
O             -0.009833          5.230611          0.000000
H             -0.580965          6.030182          0.000000
H             -0.580965          4.431040          0.000000

