%NProcShared=4 
%Mem=4GB  
%Chk=H2O_H2O_3123.chk 

#p CCSD(T)/cc-pVTZ 

H2O_H2O_3123

0 1
O             -0.000000         -0.009833          0.000000
H             -0.799571         -0.580965          0.000000
H              0.799571         -0.580965          0.000000
O             -0.009812          4.885560          0.000000
H             -0.527427          5.720773          0.000000
H             -0.632016          4.125054          0.000000

