%NProcShared=4 
%Mem=4GB  
%Chk=H2O_H2O_1129.chk 

#p CCSD(T)/cc-pVTZ 

H2O_H2O_1129

0 1
O             -0.000000         -0.009833          0.000000
H             -0.799571         -0.580965          0.000000
H              0.799571         -0.580965          0.000000
O             -0.002545          2.793662          0.000000
H              0.621962          3.552277          0.000000
H             -0.922692          3.138389          0.000000

