%NProcShared=4 
%Mem=4GB  
%Chk=H2O_H2O_3256.chk 

#p CCSD(T)/cc-pVTZ 

H2O_H2O_3256

0 1
O             -0.000000         -0.009833          0.000000
H             -0.799571         -0.580965          0.000000
H              0.799571         -0.580965          0.000000
O             -0.003763          5.053553          0.000000
H              0.516382          5.887193          0.000000
H             -0.961033          5.275227          0.000000

