%NProcShared=4 
%Mem=4GB  
%Chk=H2O_H2O_3838.chk 

#p CCSD(T)/cc-pVTZ 

H2O_H2O_3838

0 1
O             -0.000000         -0.009833          0.000000
H             -0.799571         -0.580965          0.000000
H              0.799571         -0.580965          0.000000
O             -0.007393          5.662564          0.000000
H              0.090401          6.640287          0.000000
H             -0.963987          5.437987          0.000000

