%NProcShared=4 
%Mem=4GB  
%Chk=H2O_H2O_4660.chk 

#p CCSD(T)/cc-pVTZ 

H2O_H2O_4660

0 1
O             -0.000000         -0.009833          0.000000
H             -0.799571         -0.580965          0.000000
H              0.799571         -0.580965          0.000000
O             -0.005986          6.541411          0.000000
H              0.280674          7.481269          0.000000
H             -0.988012          6.507773          0.000000

