%NProcShared=4 
%Mem=4GB  
%Chk=H2O_H2O_1581.chk 

#p CCSD(T)/cc-pVTZ 

H2O_H2O_1581

0 1
O             -0.000000         -0.009833          0.000000
H             -0.799571         -0.580965          0.000000
H              0.799571         -0.580965          0.000000
O             -0.003763          3.271901          0.000000
H              0.516382          4.105541          0.000000
H             -0.961033          3.493575          0.000000

