%NProcShared=4 
%Mem=4GB  
%Chk=H2O_H2O_2691.chk 

#p CCSD(T)/cc-pVTZ 

H2O_H2O_2691

0 1
O             -0.000000         -0.009833          0.000000
H             -0.799571         -0.580965          0.000000
H              0.799571         -0.580965          0.000000
O             -0.008516          4.437773          0.000000
H             -0.103345          5.415788          0.000000
H             -0.902916          4.030890          0.000000

