%NProcShared=4 
%Mem=4GB  
%Chk=H2O_H2O_302.chk 

#p CCSD(T)/cc-pVTZ 

H2O_H2O_302

0 1
O             -0.000000         -0.009833          0.000000
H             -0.799571         -0.580965          0.000000
H              0.799571         -0.580965          0.000000
O             -0.001283          1.916383          0.000000
H              0.716900          2.586993          0.000000
H             -0.868562          2.378263          0.000000

