%NProcShared=4 
%Mem=4GB  
%Chk=H2O_H2O_464.chk 

#p CCSD(T)/cc-pVTZ 

H2O_H2O_464

0 1
O             -0.000000         -0.009833          0.000000
H             -0.799571         -0.580965          0.000000
H              0.799571         -0.580965          0.000000
O             -0.007801          2.072170          0.000000
H              0.025838          3.054196          0.000000
H             -0.947659          1.785511          0.000000

