%NProcShared=4 
%Mem=4GB  
%Chk=H2O_H2O_2908.chk 

#p CCSD(T)/cc-pVTZ 

H2O_H2O_2908

0 1
O             -0.000000         -0.009833          0.000000
H             -0.799571         -0.580965          0.000000
H              0.799571         -0.580965          0.000000
O             -0.004917          4.680698          0.000000
H              0.401967          5.575099          0.000000
H             -0.982932          4.775527          0.000000

