%NProcShared=4 
%Mem=4GB  
%Chk=H2O_H2O_1331.chk 

#p CCSD(T)/cc-pVTZ 

H2O_H2O_1331

0 1
O             -0.000000         -0.009833          0.000000
H             -0.799571         -0.580965          0.000000
H              0.799571         -0.580965          0.000000
O             -0.003763          3.005983          0.000000
H              0.516382          3.839623          0.000000
H             -0.961033          3.227657          0.000000

