%NProcShared=4 
%Mem=4GB  
%Chk=H2O_H2O_3003.chk 

#p CCSD(T)/cc-pVTZ 

H2O_H2O_3003

0 1
O             -0.000000         -0.009833          0.000000
H             -0.799571         -0.580965          0.000000
H              0.799571         -0.580965          0.000000
O             -0.001918          4.788194          0.000000
H              0.670867          5.504340          0.000000
H             -0.897548          5.192363          0.000000

