%NProcShared=4 
%Mem=4GB  
%Chk=H2O_H2O_1756.chk 

#p CCSD(T)/cc-pVTZ 

H2O_H2O_1756

0 1
O             -0.000000         -0.009833          0.000000
H             -0.799571         -0.580965          0.000000
H              0.799571         -0.580965          0.000000
O             -0.003763          3.458044          0.000000
H              0.516382          4.291684          0.000000
H             -0.961033          3.679718          0.000000

