%NProcShared=4 
%Mem=4GB  
%Chk=H2O_H2O_1924.chk 

#p CCSD(T)/cc-pVTZ 

H2O_H2O_1924

0 1
O             -0.000000         -0.009833          0.000000
H             -0.799571         -0.580965          0.000000
H              0.799571         -0.580965          0.000000
O             -0.009833          3.608510          0.000000
H             -0.580965          4.408081          0.000000
H             -0.580965          2.808939          0.000000

