%NProcShared=4 
%Mem=4GB  
%Chk=H2O_H2O_2052.chk 

#p CCSD(T)/cc-pVTZ 

H2O_H2O_2052

0 1
O             -0.000000         -0.009833          0.000000
H             -0.799571         -0.580965          0.000000
H              0.799571         -0.580965          0.000000
O             -0.001283          3.777810          0.000000
H              0.716900          4.448421          0.000000
H             -0.868562          4.239691          0.000000

