%NProcShared=4 
%Mem=4GB  
%Chk=H2O_H2O_3233.chk 

#p CCSD(T)/cc-pVTZ 

H2O_H2O_3233

0 1
O             -0.000000         -0.009833          0.000000
H             -0.799571         -0.580965          0.000000
H              0.799571         -0.580965          0.000000
O             -0.004917          5.026392          0.000000
H              0.401967          5.920793          0.000000
H             -0.982932          5.121221          0.000000

