%NProcShared=4 
%Mem=4GB  
%Chk=H2O_H2O_1647.chk 

#p CCSD(T)/cc-pVTZ 

H2O_H2O_1647

0 1
O             -0.000000         -0.009833          0.000000
H             -0.799571         -0.580965          0.000000
H              0.799571         -0.580965          0.000000
O             -0.009749          3.317283          0.000000
H             -0.471630          4.184562          0.000000
H             -0.680360          2.599100          0.000000

