%NProcShared=4 
%Mem=4GB  
%Chk=H2O_H2O_2750.chk 

#p CCSD(T)/cc-pVTZ 

H2O_H2O_2750

0 1
O             -0.000000         -0.009833          0.000000
H             -0.799571         -0.580965          0.000000
H              0.799571         -0.580965          0.000000
O             -0.000000          4.522465          0.000000
H              0.799571          5.093597          0.000000
H             -0.799571          5.093597          0.000000

