%NProcShared=4 
%Mem=4GB  
%Chk=H2O_H2O_3605.chk 

#p CCSD(T)/cc-pVTZ 

H2O_H2O_3605

0 1
O             -0.000000         -0.009833          0.000000
H             -0.799571         -0.580965          0.000000
H              0.799571         -0.580965          0.000000
O             -0.003161          5.426065          0.000000
H              0.570393          6.223901          0.000000
H             -0.943883          5.709874          0.000000

