%NProcShared=4 
%Mem=4GB  
%Chk=H2O_H2O_547.chk 

#p CCSD(T)/cc-pVTZ 

H2O_H2O_547

0 1
O             -0.000000         -0.009833          0.000000
H             -0.799571         -0.580965          0.000000
H              0.799571         -0.580965          0.000000
O             -0.009749          2.147243          0.000000
H             -0.471630          3.014522          0.000000
H             -0.680360          1.429060          0.000000

