%NProcShared=4 
%Mem=4GB  
%Chk=H2O_H2O_2448.chk 

#p CCSD(T)/cc-pVTZ 

H2O_H2O_2448

0 1
O             -0.000000         -0.009833          0.000000
H             -0.799571         -0.580965          0.000000
H              0.799571         -0.580965          0.000000
O             -0.009812          4.167581          0.000000
H             -0.527427          5.002795          0.000000
H             -0.632016          3.407076          0.000000

