%NProcShared=4 
%Mem=4GB  
%Chk=H2O_H2O_4240.chk 

#p CCSD(T)/cc-pVTZ 

H2O_H2O_4240

0 1
O             -0.000000         -0.009833          0.000000
H             -0.799571         -0.580965          0.000000
H              0.799571         -0.580965          0.000000
O             -0.008176          6.087012          0.000000
H             -0.038837          7.069135          0.000000
H             -0.927273          5.739497          0.000000

