%NProcShared=4 
%Mem=4GB  
%Chk=H2O_H2O_1111.chk 

#p CCSD(T)/cc-pVTZ 

H2O_H2O_1111

0 1
O             -0.000000         -0.009833          0.000000
H             -0.799571         -0.580965          0.000000
H              0.799571         -0.580965          0.000000
O             -0.006483          2.764965          0.000000
H              0.218093          3.721558          0.000000
H             -0.984207          2.667170          0.000000

