%NProcShared=4 
%Mem=4GB  
%Chk=H2O_H2O_4131.chk 

#p CCSD(T)/cc-pVTZ 

H2O_H2O_4131

0 1
O             -0.000000         -0.009833          0.000000
H             -0.799571         -0.580965          0.000000
H              0.799571         -0.580965          0.000000
O             -0.003763          5.984266          0.000000
H              0.516382          6.817906          0.000000
H             -0.961033          6.205941          0.000000

