%NProcShared=4 
%Mem=4GB  
%Chk=H2O_H2O_1140.chk 

#p CCSD(T)/cc-pVTZ 

H2O_H2O_1140

0 1
O             -0.000000         -0.009833          0.000000
H             -0.799571         -0.580965          0.000000
H              0.799571         -0.580965          0.000000
O             -0.008176          2.789627          0.000000
H             -0.038837          3.771750          0.000000
H             -0.927273          2.442111          0.000000

