%NProcShared=4 
%Mem=4GB  
%Chk=H2O_H2O_839.chk 

#p CCSD(T)/cc-pVTZ 

H2O_H2O_839

0 1
O             -0.000000         -0.009833          0.000000
H             -0.799571         -0.580965          0.000000
H              0.799571         -0.580965          0.000000
O             -0.007801          2.471048          0.000000
H              0.025838          3.453073          0.000000
H             -0.947659          2.184388          0.000000

