%NProcShared=4 
%Mem=4GB  
%Chk=H2O_H2O_3385.chk 

#p CCSD(T)/cc-pVTZ 

H2O_H2O_3385

0 1
O             -0.000000         -0.009833          0.000000
H             -0.799571         -0.580965          0.000000
H              0.799571         -0.580965          0.000000
O             -0.005986          5.185228          0.000000
H              0.280674          6.125086          0.000000
H             -0.988012          5.151590          0.000000

