%NProcShared=4 
%Mem=4GB  
%Chk=H2O_H2O_355.chk 

#p CCSD(T)/cc-pVTZ 

H2O_H2O_355

0 1
O             -0.000000         -0.009833          0.000000
H             -0.799571         -0.580965          0.000000
H              0.799571         -0.580965          0.000000
O             -0.003161          1.969128          0.000000
H              0.570393          2.766964          0.000000
H             -0.943883          2.252937          0.000000

