%NProcShared=4 
%Mem=4GB  
%Chk=H2O_H2O_3455.chk 

#p CCSD(T)/cc-pVTZ 

H2O_H2O_3455

0 1
O             -0.000000         -0.009833          0.000000
H             -0.799571         -0.580965          0.000000
H              0.799571         -0.580965          0.000000
O             -0.003161          5.266514          0.000000
H              0.570393          6.064350          0.000000
H             -0.943883          5.550322          0.000000

