%NProcShared=4 
%Mem=4GB  
%Chk=H2O_H2O_4846.chk 

#p CCSD(T)/cc-pVTZ 

H2O_H2O_4846

0 1
O             -0.000000         -0.009833          0.000000
H             -0.799571         -0.580965          0.000000
H              0.799571         -0.580965          0.000000
O             -0.009644          6.721671          0.000000
H             -0.413813          7.617301          0.000000
H             -0.725791          6.048885          0.000000

