%NProcShared=4 
%Mem=4GB  
%Chk=H2O_H2O_383.chk 

#p CCSD(T)/cc-pVTZ 

H2O_H2O_383

0 1
O             -0.000000         -0.009833          0.000000
H             -0.799571         -0.580965          0.000000
H              0.799571         -0.580965          0.000000
O             -0.004917          1.994925          0.000000
H              0.401967          2.889325          0.000000
H             -0.982932          2.089754          0.000000

