%NProcShared=4 
%Mem=4GB  
%Chk=H2O_H2O_3495.chk 

#p CCSD(T)/cc-pVTZ 

H2O_H2O_3495

0 1
O             -0.000000         -0.009833          0.000000
H             -0.799571         -0.580965          0.000000
H              0.799571         -0.580965          0.000000
O             -0.009498          5.286339          0.000000
H             -0.354225          6.206486          0.000000
H             -0.768113          4.661833          0.000000

