%NProcShared=4 
%Mem=4GB  
%Chk=H2O_H2O_2133.chk 

#p CCSD(T)/cc-pVTZ 

H2O_H2O_2133

0 1
O             -0.000000         -0.009833          0.000000
H             -0.799571         -0.580965          0.000000
H              0.799571         -0.580965          0.000000
O             -0.004917          3.856352          0.000000
H              0.401967          4.750752          0.000000
H             -0.982932          3.951181          0.000000

