%NProcShared=4 
%Mem=4GB  
%Chk=H2O_H2O_1946.chk 

#p CCSD(T)/cc-pVTZ 

H2O_H2O_1946

0 1
O             -0.000000         -0.009833          0.000000
H             -0.799571         -0.580965          0.000000
H              0.799571         -0.580965          0.000000
O             -0.009644          3.637020          0.000000
H             -0.413813          4.532650          0.000000
H             -0.725791          2.964235          0.000000

