%NProcShared=4 
%Mem=4GB  
%Chk=H2O_H2O_3858.chk 

#p CCSD(T)/cc-pVTZ 

H2O_H2O_3858

0 1
O             -0.000000         -0.009833          0.000000
H             -0.799571         -0.580965          0.000000
H              0.799571         -0.580965          0.000000
O             -0.004917          5.691188          0.000000
H              0.401967          6.585588          0.000000
H             -0.982932          5.786017          0.000000

