%NProcShared=4 
%Mem=4GB  
%Chk=H2O_H2O_2704.chk 

#p CCSD(T)/cc-pVTZ 

H2O_H2O_2704

0 1
O             -0.000000         -0.009833          0.000000
H             -0.799571         -0.580965          0.000000
H              0.799571         -0.580965          0.000000
O             -0.002545          4.468946          0.000000
H              0.621962          5.227562          0.000000
H             -0.922692          4.813673          0.000000

