%NProcShared=4 
%Mem=4GB  
%Chk=H2O_H2O_2779.chk 

#p CCSD(T)/cc-pVTZ 

H2O_H2O_2779

0 1
O             -0.000000         -0.009833          0.000000
H             -0.799571         -0.580965          0.000000
H              0.799571         -0.580965          0.000000
O             -0.002545          4.548722          0.000000
H              0.621962          5.307337          0.000000
H             -0.922692          4.893449          0.000000

