%NProcShared=4 
%Mem=4GB  
%Chk=H2O_H2O_776.chk 

#p CCSD(T)/cc-pVTZ 

H2O_H2O_776

0 1
O             -0.000000         -0.009833          0.000000
H             -0.799571         -0.580965          0.000000
H              0.799571         -0.580965          0.000000
O             -0.000643          2.421690          0.000000
H              0.759863          3.043894          0.000000
H             -0.835856          2.939305          0.000000

