%NProcShared=4 
%Mem=4GB  
%Chk=H2O_H2O_2647.chk 

#p CCSD(T)/cc-pVTZ 

H2O_H2O_2647

0 1
O             -0.000000         -0.009833          0.000000
H             -0.799571         -0.580965          0.000000
H              0.799571         -0.580965          0.000000
O             -0.009749          4.380956          0.000000
H             -0.471630          5.248235          0.000000
H             -0.680360          3.662773          0.000000

