%NProcShared=4 
%Mem=4GB  
%Chk=H2O_H2O_194.chk 

#p CCSD(T)/cc-pVTZ 

H2O_H2O_194

0 1
O             -0.000000         -0.009833          0.000000
H             -0.799571         -0.580965          0.000000
H              0.799571         -0.580965          0.000000
O             -0.009311          1.776835          0.000000
H             -0.293120          2.717558          0.000000
H             -0.807147          1.203281          0.000000

