%NProcShared=4 
%Mem=4GB  
%Chk=H2O_H2O_473.chk 

#p CCSD(T)/cc-pVTZ 

H2O_H2O_473

0 1
O             -0.000000         -0.009833          0.000000
H             -0.799571         -0.580965          0.000000
H              0.799571         -0.580965          0.000000
O             -0.009812          2.066828          0.000000
H             -0.527427          2.902041          0.000000
H             -0.632016          1.306322          0.000000

