%NProcShared=4 
%Mem=4GB  
%Chk=H2O_H2O_1146.chk 

#p CCSD(T)/cc-pVTZ 

H2O_H2O_1146

0 1
O             -0.000000         -0.009833          0.000000
H             -0.799571         -0.580965          0.000000
H              0.799571         -0.580965          0.000000
O             -0.009644          2.786082          0.000000
H             -0.413813          3.681712          0.000000
H             -0.725791          2.113297          0.000000

