%NProcShared=4 
%Mem=4GB  
%Chk=H2O_H2O_58.chk 

#p CCSD(T)/cc-pVTZ 

H2O_H2O_58

0 1
O             -0.000000         -0.009833          0.000000
H             -0.799571         -0.580965          0.000000
H              0.799571         -0.580965          0.000000
O             -0.004917          1.649231          0.000000
H              0.401967          2.543632          0.000000
H             -0.982932          1.744060          0.000000

