%NProcShared=4 
%Mem=4GB  
%Chk=H2O_H2O_2988.chk 

#p CCSD(T)/cc-pVTZ 

H2O_H2O_2988

0 1
O             -0.000000         -0.009833          0.000000
H             -0.799571         -0.580965          0.000000
H              0.799571         -0.580965          0.000000
O             -0.007393          4.758442          0.000000
H              0.090401          5.736165          0.000000
H             -0.963987          4.533865          0.000000

