%NProcShared=4 
%Mem=4GB  
%Chk=H2O_H2O_158.chk 

#p CCSD(T)/cc-pVTZ 

H2O_H2O_158

0 1
O             -0.000000         -0.009833          0.000000
H             -0.799571         -0.580965          0.000000
H              0.799571         -0.580965          0.000000
O             -0.004917          1.755598          0.000000
H              0.401967          2.649999          0.000000
H             -0.982932          1.850427          0.000000

