%NProcShared=4 
%Mem=4GB  
%Chk=H2O_H2O_1617.chk 

#p CCSD(T)/cc-pVTZ 

H2O_H2O_1617

0 1
O             -0.000000         -0.009833          0.000000
H             -0.799571         -0.580965          0.000000
H              0.799571         -0.580965          0.000000
O             -0.008819          3.293757          0.000000
H             -0.167410          4.263476          0.000000
H             -0.874693          2.829249          0.000000

