%NProcShared=4 
%Mem=4GB  
%Chk=H2O_H2O_4948.chk 

#p CCSD(T)/cc-pVTZ 

H2O_H2O_4948

0 1
O             -0.000000         -0.009833          0.000000
H             -0.799571         -0.580965          0.000000
H              0.799571         -0.580965          0.000000
O             -0.009812          6.826763          0.000000
H             -0.527427          7.661976          0.000000
H             -0.632016          6.066257          0.000000

