%NProcShared=4 
%Mem=4GB  
%Chk=H2O_H2O_3981.chk 

#p CCSD(T)/cc-pVTZ 

H2O_H2O_3981

0 1
O             -0.000000         -0.009833          0.000000
H             -0.799571         -0.580965          0.000000
H              0.799571         -0.580965          0.000000
O             -0.003763          5.824716          0.000000
H              0.516382          6.658356          0.000000
H             -0.961033          6.046390          0.000000

