%NProcShared=4 
%Mem=4GB  
%Chk=H2O_H2O_1539.chk 

#p CCSD(T)/cc-pVTZ 

H2O_H2O_1539

0 1
O             -0.000000         -0.009833          0.000000
H             -0.799571         -0.580965          0.000000
H              0.799571         -0.580965          0.000000
O             -0.007801          3.215619          0.000000
H              0.025838          4.197644          0.000000
H             -0.947659          2.928959          0.000000

