%NProcShared=4 
%Mem=4GB  
%Chk=H2O_H2O_4155.chk 

#p CCSD(T)/cc-pVTZ 

H2O_H2O_4155

0 1
O             -0.000000         -0.009833          0.000000
H             -0.799571         -0.580965          0.000000
H              0.799571         -0.580965          0.000000
O             -0.003161          6.011085          0.000000
H              0.570393          6.808921          0.000000
H             -0.943883          6.294893          0.000000

