%NProcShared=4 
%Mem=4GB  
%Chk=H2O_H2O_4144.chk 

#p CCSD(T)/cc-pVTZ 

H2O_H2O_4144

0 1
O             -0.000000         -0.009833          0.000000
H             -0.799571         -0.580965          0.000000
H              0.799571         -0.580965          0.000000
O             -0.009311          5.978343          0.000000
H             -0.293120          6.919065          0.000000
H             -0.807147          5.404789          0.000000

