%NProcShared=4 
%Mem=4GB  
%Chk=H2O_H2O_753.chk 

#p CCSD(T)/cc-pVTZ 

H2O_H2O_753

0 1
O             -0.000000         -0.009833          0.000000
H             -0.799571         -0.580965          0.000000
H              0.799571         -0.580965          0.000000
O             -0.001918          2.394931          0.000000
H              0.670867          3.111077          0.000000
H             -0.897548          2.799100          0.000000

