%NProcShared=4 
%Mem=4GB  
%Chk=H2O_H2O_543.chk 

#p CCSD(T)/cc-pVTZ 

H2O_H2O_543

0 1
O             -0.000000         -0.009833          0.000000
H             -0.799571         -0.580965          0.000000
H              0.799571         -0.580965          0.000000
O             -0.009085          2.149723          0.000000
H             -0.230759          3.106993          0.000000
H             -0.842725          1.629578          0.000000

