%NProcShared=4 
%Mem=4GB  
%Chk=H2O_H2O_2734.chk 

#p CCSD(T)/cc-pVTZ 

H2O_H2O_2734

0 1
O             -0.000000         -0.009833          0.000000
H             -0.799571         -0.580965          0.000000
H              0.799571         -0.580965          0.000000
O             -0.005463          4.494216          0.000000
H              0.342052          5.413313          0.000000
H             -0.987586          4.524876          0.000000

