%NProcShared=4 
%Mem=4GB  
%Chk=H2O_H2O_1481.chk 

#p CCSD(T)/cc-pVTZ 

H2O_H2O_1481

0 1
O             -0.000000         -0.009833          0.000000
H             -0.799571         -0.580965          0.000000
H              0.799571         -0.580965          0.000000
O             -0.003763          3.165534          0.000000
H              0.516382          3.999174          0.000000
H             -0.961033          3.387208          0.000000

