%NProcShared=4 
%Mem=4GB  
%Chk=H2O_H2O_211.chk 

#p CCSD(T)/cc-pVTZ 

H2O_H2O_211

0 1
O             -0.000000         -0.009833          0.000000
H             -0.799571         -0.580965          0.000000
H              0.799571         -0.580965          0.000000
O             -0.006483          1.807659          0.000000
H              0.218093          2.764253          0.000000
H             -0.984207          1.709865          0.000000

