%NProcShared=4 
%Mem=4GB  
%Chk=H2O_H2O_4910.chk 

#p CCSD(T)/cc-pVTZ 

H2O_H2O_4910

0 1
O             -0.000000         -0.009833          0.000000
H             -0.799571         -0.580965          0.000000
H              0.799571         -0.580965          0.000000
O             -0.005986          6.807329          0.000000
H              0.280674          7.747187          0.000000
H             -0.988012          6.773691          0.000000

