%NProcShared=4 
%Mem=4GB  
%Chk=H2O_H2O_4502.chk 

#p CCSD(T)/cc-pVTZ 

H2O_H2O_4502

0 1
O             -0.000000         -0.009833          0.000000
H             -0.799571         -0.580965          0.000000
H              0.799571         -0.580965          0.000000
O             -0.001283          6.383808          0.000000
H              0.716900          7.054419          0.000000
H             -0.868562          6.845689          0.000000

