%NProcShared=4 
%Mem=4GB  
%Chk=H2O_H2O_784.chk 

#p CCSD(T)/cc-pVTZ 

H2O_H2O_784

0 1
O             -0.000000         -0.009833          0.000000
H             -0.799571         -0.580965          0.000000
H              0.799571         -0.580965          0.000000
O             -0.005463          2.420054          0.000000
H              0.342052          3.339151          0.000000
H             -0.987586          2.450715          0.000000

