%NProcShared=4 
%Mem=4GB  
%Chk=H2O_H2O_588.chk 

#p CCSD(T)/cc-pVTZ 

H2O_H2O_588

0 1
O             -0.000000         -0.009833          0.000000
H             -0.799571         -0.580965          0.000000
H              0.799571         -0.580965          0.000000
O             -0.007393          2.205627          0.000000
H              0.090401          3.183350          0.000000
H             -0.963987          1.981051          0.000000

