%NProcShared=4 
%Mem=4GB  
%Chk=H2O_H2O_4136.chk 

#p CCSD(T)/cc-pVTZ 

H2O_H2O_4136

0 1
O             -0.000000         -0.009833          0.000000
H             -0.799571         -0.580965          0.000000
H              0.799571         -0.580965          0.000000
O             -0.006483          5.982575          0.000000
H              0.218093          6.939169          0.000000
H             -0.984207          5.884780          0.000000

