%NProcShared=4 
%Mem=4GB  
%Chk=H2O_H2O_1837.chk 

#p CCSD(T)/cc-pVTZ 

H2O_H2O_1837

0 1
O             -0.000000         -0.009833          0.000000
H             -0.799571         -0.580965          0.000000
H              0.799571         -0.580965          0.000000
O             -0.006953          3.535688          0.000000
H              0.154578          4.504921          0.000000
H             -0.976187          3.374157          0.000000

