%NProcShared=4 
%Mem=4GB  
%Chk=H2O_H2O_970.chk 

#p CCSD(T)/cc-pVTZ 

H2O_H2O_970

0 1
O             -0.000000         -0.009833          0.000000
H             -0.799571         -0.580965          0.000000
H              0.799571         -0.580965          0.000000
O             -0.009498          2.600566          0.000000
H             -0.354225          3.520712          0.000000
H             -0.768113          1.976059          0.000000

