%NProcShared=4 
%Mem=4GB  
%Chk=H2O_H2O_1712.chk 

#p CCSD(T)/cc-pVTZ 

H2O_H2O_1712

0 1
O             -0.000000         -0.009833          0.000000
H             -0.799571         -0.580965          0.000000
H              0.799571         -0.580965          0.000000
O             -0.006953          3.402729          0.000000
H              0.154578          4.371962          0.000000
H             -0.976187          3.241198          0.000000

