%NProcShared=4 
%Mem=4GB  
%Chk=H2O_H2O_2110.chk 

#p CCSD(T)/cc-pVTZ 

H2O_H2O_2110

0 1
O             -0.000000         -0.009833          0.000000
H             -0.799571         -0.580965          0.000000
H              0.799571         -0.580965          0.000000
O             -0.005986          3.829046          0.000000
H              0.280674          4.768903          0.000000
H             -0.988012          3.795407          0.000000

