%NProcShared=4 
%Mem=4GB  
%Chk=H2O_H2O_2925.chk 

#p CCSD(T)/cc-pVTZ 

H2O_H2O_2925

0 1
O             -0.000000         -0.009833          0.000000
H             -0.799571         -0.580965          0.000000
H              0.799571         -0.580965          0.000000
O             -0.000000          4.708608          0.000000
H              0.799571          5.279740          0.000000
H             -0.799571          5.279740          0.000000

