%NProcShared=4 
%Mem=4GB  
%Chk=H2O_H2O_2830.chk 

#p CCSD(T)/cc-pVTZ 

H2O_H2O_2830

0 1
O             -0.000000         -0.009833          0.000000
H             -0.799571         -0.580965          0.000000
H              0.799571         -0.580965          0.000000
O             -0.003161          4.601719          0.000000
H              0.570393          5.399555          0.000000
H             -0.943883          4.885527          0.000000

