%NProcShared=4 
%Mem=4GB  
%Chk=H2O_H2O_4795.chk 

#p CCSD(T)/cc-pVTZ 

H2O_H2O_4795

0 1
O             -0.000000         -0.009833          0.000000
H             -0.799571         -0.580965          0.000000
H              0.799571         -0.580965          0.000000
O             -0.009498          6.669114          0.000000
H             -0.354225          7.589261          0.000000
H             -0.768113          6.044607          0.000000

