%NProcShared=4 
%Mem=4GB  
%Chk=H2O_H2O_2489.chk 

#p CCSD(T)/cc-pVTZ 

H2O_H2O_2489

0 1
O             -0.000000         -0.009833          0.000000
H             -0.799571         -0.580965          0.000000
H              0.799571         -0.580965          0.000000
O             -0.007801          4.226108          0.000000
H              0.025838          5.208134          0.000000
H             -0.947659          3.939448          0.000000

