%NProcShared=4 
%Mem=4GB  
%Chk=H2O_H2O_2968.chk 

#p CCSD(T)/cc-pVTZ 

H2O_H2O_2968

0 1
O             -0.000000         -0.009833          0.000000
H             -0.799571         -0.580965          0.000000
H              0.799571         -0.580965          0.000000
O             -0.009085          4.729129          0.000000
H             -0.230759          5.686400          0.000000
H             -0.842725          4.208985          0.000000

