%NProcShared=4 
%Mem=4GB  
%Chk=H2O_H2O_210.chk 

#p CCSD(T)/cc-pVTZ 

H2O_H2O_210

0 1
O             -0.000000         -0.009833          0.000000
H             -0.799571         -0.580965          0.000000
H              0.799571         -0.580965          0.000000
O             -0.005986          1.808067          0.000000
H              0.280674          2.747925          0.000000
H             -0.988012          1.774429          0.000000

