%NProcShared=4 
%Mem=4GB  
%Chk=H2O_H2O_649.chk 

#p CCSD(T)/cc-pVTZ 

H2O_H2O_649

0 1
O             -0.000000         -0.009833          0.000000
H             -0.799571         -0.580965          0.000000
H              0.799571         -0.580965          0.000000
O             -0.009833          2.252327          0.000000
H             -0.580965          3.051898          0.000000
H             -0.580965          1.452756          0.000000

